/*--------------------------------*- C++ -*----------------------------------*\
| =========                 |                                                 |
| \\      /  F ield         | OpenFOAM: The Open Source CFD Toolbox           |
|  \\    /   O peration     | Version:  5.x                                   |
|   \\  /    A nd           | Web:      www.OpenFOAM.org                      |
|    \\/     M anipulation  |                                                 |
\*---------------------------------------------------------------------------*/
/*   Windows 32 and 64 bit porting by blueCAPE: http://www.bluecape.com.pt   *\
|  Based on Windows porting (2.0.x v4) by Symscape: http://www.symscape.com   |
\*---------------------------------------------------------------------------*/
FoamFile
{
    version     2.0;
    format      ascii;
    class       featureEdgeMesh;
    location    "constant/triSurface";
    object      NEMO4_Fuselage.eMesh;
}
// * * * * * * * * * * * * * * * * * * * * * * * * * * * * * * * * * * * * * //


// points:

890
(
(0.712804 3.80942e-024 -0.202518)
(0.712804 0.108744 -0.202518)
(0.662804 0.112797 -0.205471)
(0.662804 7.07413e-025 -0.205471)
(0.712804 0.108744 -0.209871)
(0.712804 4.87989e-026 -0.209871)
(0.662804 4.87989e-026 -0.209871)
(0.662804 0.112797 -0.209871)
(-0.0086916 0.11562 -0.22177)
(-0.0086916 2.22413e-024 -0.22177)
(0.0413084 1.06439e-024 -0.223375)
(0.0413084 0.11562 -0.223375)
(-0.0086916 0.11562 -0.227438)
(-0.0086916 3.56991e-024 -0.227438)
(0.0413084 0.11562 -0.227438)
(0.0413084 -1.39317e-024 -0.227438)
(1.86167 3.42247e-023 0.275966)
(1.86167 0.00106352 0.275966)
(1.33354 -3.91545e-019 0.0101796)
(1.39149 0.000321008 0.0178235)
(1.63334 1.6105e-024 0.24501)
(1.65338 1.20981e-023 0.265986)
(1.80863 3.61366e-025 -0.15605)
(1.56439 0.0325945 -0.16596)
(1.80863 0.0114965 -0.15605)
(-0.392012 3.58721e-018 -0.0206368)
(-0.392012 -3.12953e-024 -0.18075)
(0.509925 0.17864 -0.00826571)
(0.509908 0.17864 -0.00958768)
(1.66399 0.0694046 -0.074514)
(1.66397 0.069436 -0.0745261)
(1.66398 0.0694165 -0.0745197)
(1.66397 0.55036 -0.0729206)
(1.66397 0.55036 -0.0690625)
(1.66399 0.0694046 -0.0674691)
(1.76042 4.88622e-012 0.292044)
(1.71746 2.82961e-005 0.293644)
(1.70881 3.39593e-005 0.29198)
(1.33992 0.000355406 0.0105659)
(1.37447 0.000332465 0.0135183)
(1.41254 0.000306843 0.0231465)
(1.41948 -1.58181e-023 0.0255823)
(1.40856 0.000309522 0.0221397)
(1.4482 0.000281478 0.0386533)
(1.48306 1.23151e-024 0.061286)
(1.4805 0.000256122 0.0593942)
(1.50887 0.000230539 0.0847316)
(1.53358 0.000204291 0.114903)
(1.64616 8.08575e-005 0.259629)
(1.66005 6.87882e-005 0.271015)
(1.648 7.92534e-005 0.261143)
(1.66155 6.74834e-005 0.272246)
(1.67586 5.66332e-005 0.280489)
(1.69188 4.52993e-005 0.287329)
(1.72618 2.26229e-005 0.294318)
(1.74107 1.2959e-005 0.294681)
(1.74354 1.13041e-005 0.294344)
(1.55894 0.0330031 -0.166181)
(1.66299 0.0241286 -0.161959)
(-0.392012 0.0852788 -0.0637845)
(1.56397 0.0364347 -0.0832602)
(1.40089 0.0602278 -0.0684768)
(1.56397 0.0366191 -0.058719)
(0.288423 0.177027 -0.0117743)
(-0.00385355 0.168575 -0.00131536)
(1.66398 0.0694118 -0.0745175)
(1.66397 0.0694403 -0.0716908)
(1.66397 0.0694403 -0.0745275)
(1.66397 0.55036 -0.0729213)
(1.66396 0.55036 -0.072922)
(1.66397 0.55036 -0.069062)
(1.66397 0.0694403 -0.0702922)
(1.66397 0.0694403 -0.0674555)
(1.66398 0.0694121 -0.0674658)
(1.66398 0.069425 -0.0674601)
(1.56397 0.0517637 -0.0583993)
(1.56397 0.0517637 -0.0835838)
(1.66401 0.324317 -0.0668745)
(1.664 0.292025 -0.0668212)
(1.664 0.356608 -0.0669886)
(1.664 0.292025 -0.0668115)
(1.66401 0.324317 -0.0751086)
(1.664 0.356608 -0.0750042)
(1.66396 0.518069 -0.0734482)
(0.312435 0.174904 -0.0112354)
(0.687808 3.31321e-018 -0.203981)
(0.687808 0.110826 -0.203971)
(0.677201 -7.44063e-024 -0.204601)
(0.687808 0.110826 -0.209871)
(0.0162177 0.117555 -0.222655)
(0.0120749 0.1175 -0.22252)
(0.00881831 0.117374 -0.22241)
(0.00792716 0.117339 -0.22238)
(0.00377549 0.117072 -0.222235)
(0.00068931 0.116794 -0.222123)
(-0.000378954 0.116698 -0.222085)
(-0.00453501 0.116214 -0.22193)
(-0.00737415 0.115808 -0.221821)
(0.00209497 2.71655e-024 -0.222175)
(0.0163323 -1.31697e-017 -0.222648)
(0.0203543 0.117505 -0.222785)
(0.0169788 0.117546 -0.222679)
(0.0163319 0.117554 -0.222659)
(0.0368178 0.116257 -0.223258)
(0.0216523 -3.79216e-024 -0.222825)
(0.0332574 0.116664 -0.223162)
(0.0327166 0.116726 -0.223147)
(0.0286049 0.11709 -0.223031)
(0.0251365 0.117309 -0.22293)
(0.0244838 0.11735 -0.222911)
(-0.00737585 0.11582 -0.227438)
(0.00881795 0.117383 -0.227438)
(0.0169789 0.117554 -0.227438)
(0.000688386 0.116804 -0.227438)
(0.025137 0.117316 -0.227438)
(0.0332581 0.11667 -0.227438)
(1.8445 0.00302664 0.278693)
(1.79318 0.00609775 0.286842)
(1.79129 0.0060972 0.287143)
(1.79451 0.00601847 0.286631)
(1.79772 0.00582595 0.286121)
(1.78967 0.00609672 0.287399)
(1.78806 0.00609625 0.287655)
(1.78645 0.00609578 0.287911)
(1.78484 0.00609531 0.288167)
(1.78323 0.00609484 0.288423)
(1.83627 0.00351929 0.28)
(1.8106 0.00505526 0.284076)
(1.78206 0.00609449 0.288608)
(1.78162 0.00606198 0.288678)
(1.78082 0.00600275 0.288806)
(1.78001 0.00594349 0.288933)
(1.81975 0.0104617 -0.06799)
(1.8198 0.010451 -0.0675986)
(1.82474 0.00934206 -0.0270133)
(1.83002 0.00815941 0.0162695)
(1.83529 0.00697676 0.0595523)
(1.84057 0.00579411 0.102835)
(1.84073 0.00575726 0.104184)
(1.85639 0.00224617 0.232683)
(1.8507 0.00352305 0.185952)
(1.85112 0.00342881 0.189401)
(1.81975 2.60615e-017 -0.0679893)
(1.85376 0.00283749 0.211042)
(1.35714 0.000343973 0.0120373)
(1.35488 -4.44446e-021 0.0110207)
(1.39744 0.000317004 0.0193282)
(1.37596 -7.63879e-019 0.0137324)
(1.3745 0.000332447 0.0135249)
(1.36381 -3.26356e-019 0.0121702)
(1.36362 0.000339674 0.0125906)
(1.43014 0.000294325 0.0307989)
(1.42491 0.000298044 0.0285255)
(1.4305 1.16194e-020 0.0302922)
(1.39911 2.29875e-023 0.0189429)
(1.43904 4.96026e-024 0.0339422)
(1.45777 4.06586e-021 0.0439846)
(1.44104 0.000286572 0.0355389)
(1.48873 -4.48799e-021 0.0661148)
(1.48486 0.000252186 0.0632918)
(1.46565 1.09995e-023 0.0488749)
(1.47096 0.000263607 0.0532712)
(1.46072 0.000271649 0.0466927)
(1.45633 0.000275091 0.0438779)
(1.49919 -9.27704e-022 0.0750126)
(1.51317 -1.53674e-020 0.0891987)
(1.49758 0.000240719 0.0746489)
(1.48835 0.000249042 0.0664058)
(1.52085 0.000217806 0.0993673)
(1.51274 0.000226426 0.0894596)
(1.51006 0.000229278 0.0861811)
(1.52513 3.2604e-024 0.103719)
(1.53415 7.40361e-021 0.1155)
(1.53164 0.000206346 0.112541)
(1.57316 0.000160492 0.166563)
(1.5545 0.000181135 0.142215)
(1.55244 0.000183419 0.139521)
(1.5546 5.48364e-020 0.142203)
(1.53404 0.000203777 0.115509)
(1.60892 9.16447e-021 0.213125)
(1.62256 -2.81979e-023 0.230923)
(1.63152 9.59117e-005 0.242734)
(1.61459 0.000114637 0.220648)
(1.57323 9.80464e-020 0.166523)
(1.59247 9.79344e-021 0.191645)
(1.59388 0.000137564 0.193605)
(1.5955 9.66355e-021 0.195608)
(1.59542 0.000135851 0.195626)
(1.61344 0.000115915 0.21914)
(1.64196 1.34018e-023 0.255382)
(1.63656 5.79048e-020 0.248889)
(1.64811 7.7741e-021 0.261091)
(1.64686 8.02485e-005 0.260204)
(1.66585 6.85704e-021 0.275057)
(1.66104 6.79281e-005 0.271827)
(1.68025 5.33034e-005 0.283019)
(1.68272 5.15985e-005 0.283937)
(1.70815 3.43883e-005 0.291854)
(1.69972 3.99029e-005 0.290234)
(1.70509 -1.73432e-023 0.291586)
(1.70878 2.09315e-017 0.292263)
(1.69179 6.31199e-017 0.287623)
(1.69105 4.58717e-005 0.28702)
(1.72574 2.29096e-005 0.294307)
(1.72021 2.64961e-005 0.294172)
(1.67575 -4.89665e-021 0.280739)
(1.67615 -5.40857e-021 0.280971)
(1.71694 1.91141e-020 0.293763)
(1.71745 1.85046e-020 0.2938)
(1.72621 7.50846e-021 0.294436)
(1.73239 -1.9061e-022 0.294885)
(1.73491 -2.41322e-021 0.294759)
(1.74332 1.14483e-005 0.294374)
(1.74775 -2.8006e-023 0.294113)
(1.75207 1.66591e-012 0.293407)
(1.23379 -1.25475e-023 -0.179374)
(1.34823 0.0412025 -0.174731)
(1.37121 0.0413006 -0.173798)
(1.33991 0.0407199 -0.175065)
(1.31301 0.0391592 -0.176144)
(1.3959 0.0414059 -0.172797)
(1.43385 0.0402591 -0.171257)
(1.44419 0.0399467 -0.170837)
(1.49642 0.0371403 -0.168718)
(1.52221 0.0357547 -0.167671)
(1.8197 0.0104663 -0.0683811)
(0.689841 0.109242 0.0251162)
(0.557384 0.12 0.0312025)
(0.557812 -2.33576e-017 0.0311802)
(0.66797 -5.53578e-024 0.0256835)
(0.748126 0.104507 0.022438)
(0.767552 -1.22852e-023 0.0218112)
(0.759383 0.103489 0.0222543)
(0.767724 0.102735 0.0221182)
(1.30869 0.0521187 0.0124085)
(1.2933 0.0535184 0.0132926)
(1.31553 0.0515385 0.0116798)
(1.38503 0.0456451 0.00427866)
(1.39339 0.0449359 0.00338812)
(1.29554 5.91197e-018 0.0134488)
(1.29331 5.74845e-018 0.013586)
(1.23919 1.7714e-018 0.0169239)
(1.24601 0.0578201 0.01601)
(1.18821 1.65713e-017 0.0187586)
(1.2059 0.061469 0.018315)
(1.18822 0.0631597 0.0185944)
(1.17495 2.04212e-017 0.0192358)
(1.17653 0.0642771 0.0187791)
(1.10783 -1.3497e-023 0.0202466)
(1.10702 0.0709227 0.0198775)
(1.08311 -8.35974e-019 0.0202726)
(1.08311 0.0732082 0.0202552)
(1.07578 0.073909 0.020371)
(1.03723 9.12629e-018 0.0203209)
(0.97799 0.0833202 0.0200328)
(0.977995 7.49127e-018 0.0201295)
(0.767725 -3.34519e-018 0.0218065)
(0.797178 3.42749e-024 0.0210048)
(0.82892 0.0971987 0.0211193)
(0.872869 6.38831e-018 0.0200081)
(0.872865 0.0932233 0.020402)
(0.886174 -1.31794e-023 0.0198329)
(0.909909 0.0898723 0.0197974)
(0.967976 0.0842839 0.0199982)
(0.671812 2.91382e-018 -0.204925)
(0.557748 -6.76473e-024 -0.212341)
(0.557748 0.119978 -0.212341)
(0.743664 0.106011 -0.200787)
(0.745574 -3.90579e-018 -0.200876)
(0.74556 0.105802 -0.200693)
(0.824136 -1.11692e-017 -0.196564)
(0.839286 0.0954777 -0.196034)
(0.839367 -9.77838e-018 -0.195848)
(0.9245 0.0860911 -0.191798)
(0.933179 -1.21236e-018 -0.191438)
(0.933175 0.0849594 -0.191437)
(0.945202 -1.14512e-019 -0.190872)
(1.28607 0.0415916 -0.177174)
(1.30403 0.0399432 -0.176478)
(1.21474 0.0495803 -0.179934)
(1.06629 -6.13176e-018 -0.185758)
(1.12085 0.0604736 -0.183626)
(1.12084 -1.59038e-018 -0.183607)
(1.14134 0.0578005 -0.182774)
(1.1874 3.95139e-018 -0.180982)
(1.21467 -1.40578e-007 -0.179929)
(1.23002 -2.19664e-007 -0.179337)
(-0.392012 0.0043318 -0.0207219)
(-0.392012 0.012518 -0.0216902)
(-0.392012 0.0215105 -0.0227539)
(-0.392012 0.0639422 -0.0415026)
(-0.392012 0.0690469 -0.0450652)
(-0.392012 0.0703317 -0.0459619)
(-0.392012 0.0737103 -0.0491942)
(-0.392012 0.0782484 -0.0535358)
(-0.392012 0.0817974 -0.0569311)
(-0.392012 0.0823591 -0.057606)
(-0.392012 0.0825945 -0.0578889)
(-0.392012 0.0828659 -0.0583133)
(-0.392012 0.0854973 -0.06469)
(-0.392012 0.0855543 -0.065474)
(-0.392012 0.0480108 -0.0320454)
(-0.392012 0.0535981 -0.0347096)
(-0.392012 0.0653749 -0.173358)
(-0.392012 0.064765 -0.174397)
(-0.392012 0.0564313 -0.180178)
(-0.392012 0.055092 -0.180526)
(-0.392012 0.0538465 -0.180634)
(-0.392012 0.0247765 -0.0236908)
(-0.392012 0.030745 -0.0254031)
(-0.392012 0.0367012 -0.0271119)
(-0.392012 0.0555256 -0.0356287)
(-0.392012 0.0588484 -0.0379477)
(-0.392012 0.0837994 -0.0597733)
(-0.392012 0.0839436 -0.0599987)
(-0.392012 0.0845125 -0.0613361)
(-0.392012 0.0849177 -0.0622888)
(-0.392012 0.0850773 -0.0629499)
(-0.392012 0.0856168 -0.0663344)
(-0.392012 0.0856751 -0.0671378)
(-0.392012 0.0855866 -0.0680599)
(-0.392012 0.0855031 -0.0689293)
(-0.392012 0.0854281 -0.0697103)
(-0.392012 0.0808862 -0.0943986)
(-0.392012 0.0638854 -0.175445)
(-0.392012 0.0631596 -0.176309)
(-0.392012 0.0617353 -0.177574)
(-0.392012 0.0610655 -0.178014)
(-0.392012 0.0596772 -0.178925)
(-0.392012 0.0588527 -0.179291)
(-0.392012 0.0574484 -0.179914)
(-0.392012 0.0525079 -0.18075)
(-0.392012 0.0391186 -0.0278054)
(-0.392012 0.0424246 -0.0293818)
(-0.392012 0.0763442 -0.119087)
(-0.392012 0.0718022 -0.143775)
(-0.392012 0.0672603 -0.168463)
(-0.392012 0.0669537 -0.169773)
(-0.392012 0.066929 -0.169878)
(-0.392012 0.0664977 -0.171016)
(-0.392012 0.0660362 -0.172232)
(-0.392012 0.0660321 -0.172239)
(0.292718 6.69102e-024 0.0498578)
(0.317185 -7.21315e-020 0.0484262)
(0.196842 0.0942747 0.0455629)
(0.213203 0.100332 0.0445727)
(0.25789 0.116755 0.0416929)
(0.412159 0.118594 0.0380257)
(0.411289 0.11858 0.0380478)
(0.338448 0.117411 0.0399024)
(0.484222 0.119291 0.0346399)
(0.436876 0.118833 0.0368644)
(0.437071 3.47554e-018 0.0405064)
(0.517337 -5.77415e-019 0.0344375)
(0.556956 -4.68687e-018 0.031237)
(0.0290423 4.12158e-018 0.0504028)
(0.0764225 -5.49465e-018 0.0522253)
(0.0952643 -9.31873e-018 0.0529501)
(0.38414 -7.63241e-024 0.0445085)
(0.164721 -7.74083e-024 0.053502)
(0.197151 3.11974e-019 0.052863)
(0.238409 2.18355e-018 0.0520501)
(-0.360046 -5.0349e-025 -0.0102603)
(-0.338574 -1.10519e-017 -0.00450771)
(-0.283922 -1.05084e-017 0.00829509)
(-0.272184 -9.9823e-018 0.0108945)
(-0.32351 -1.22827e-017 -0.000471885)
(-0.162044 -3.60596e-018 0.0304921)
(-0.140984 -5.57161e-024 0.0335796)
(-0.167512 -2.82801e-018 0.0295812)
(-0.0211973 1.16414e-017 0.0470008)
(0.0156157 6.13125e-018 0.0494936)
(-0.106834 -8.25743e-018 0.0379192)
(-0.0809829 -1.02751e-017 0.0412043)
(-0.0455541 2.71256e-018 0.0446393)
(-0.226805 4.88234e-018 0.0196612)
(-0.22526 -3.21815e-024 0.0199597)
(0.316953 0.125863 -0.22162)
(0.36059 0.125487 -0.220583)
(0.436703 4.99219e-018 -0.217617)
(0.415435 5.87467e-018 -0.218542)
(0.31668 0.125865 -0.221626)
(0.316688 -1.25021e-017 -0.221901)
(0.301372 -1.53523e-017 -0.222422)
(0.200938 0.126863 -0.224376)
(0.209213 -1.02307e-017 -0.22428)
(-0.36631 -2.59243e-024 -0.186429)
(-0.330326 1.25959e-024 -0.192864)
(-0.339391 -3.39407e-018 -0.191243)
(-0.312019 1.50157e-018 -0.195512)
(-0.366093 -2.70668e-018 -0.186467)
(-0.250827 7.97544e-025 -0.203497)
(-0.28402 5.23476e-018 -0.199395)
(-0.22636 2.38763e-018 -0.206125)
(-0.291925 3.31882e-024 -0.198418)
(-0.160796 2.05664e-024 -0.212448)
(-0.167015 -5.75769e-018 -0.211877)
(-0.112237 7.15961e-025 -0.216175)
(-0.106564 1.9334e-019 -0.216525)
(-0.0988192 0.124539 -0.216939)
(-0.0912185 0.12491 -0.217502)
(-0.0859111 0.125168 -0.217895)
(-0.0615626 -1.36336e-017 -0.219304)
(-0.0836075 0.125192 -0.217994)
(-0.0759769 0.125269 -0.218323)
(-0.0607095 0.125423 -0.218979)
(-0.0455805 0.125575 -0.21963)
(-0.0456004 -1.13113e-017 -0.220049)
(-0.0683438 0.125346 -0.218651)
(-0.207058 6.42336e-018 -0.208199)
(0.497119 0.121684 -0.214884)
(0.557018 0.120015 -0.212384)
(0.376973 0.12503 -0.219899)
(0.436679 0.123367 -0.217407)
(0.557018 -1.20352e-023 -0.212384)
(0.436998 0.123358 -0.217394)
(-0.0301822 0.125731 -0.220293)
(-0.01494 0.125885 -0.220949)
(-0.00894378 -2.53191e-024 -0.22176)
(-0.0454416 0.125577 -0.219636)
(0.01548 0.126192 -0.222258)
(0.0416313 0.126456 -0.223383)
(0.045468 4.61149e-024 -0.223478)
(0.0458232 0.126466 -0.223409)
(0.0759378 -1.51716e-017 -0.223933)
(0.0759387 0.126543 -0.223597)
(0.119936 -6.1909e-024 -0.224591)
(0.0761223 0.126544 -0.223598)
(0.196568 -9.63525e-018 -0.224324)
(0.196569 0.126852 -0.224349)
(0.196797 0.126852 -0.22435)
(0.557368 1.33234e-017 -0.212366)
(0.557384 0.12 -0.212365)
(0.55733 -6.05238e-018 0.0312084)
(1.66301 0.0241284 -0.160374)
(1.66305 0.0241975 -0.121085)
(1.66305 0.0242454 -0.106803)
(1.66305 0.0243042 -0.0892252)
(1.66305 0.0243631 -0.0716479)
(1.66305 0.0243631 -0.0616051)
(1.66305 0.0243631 -0.0512326)
(1.66305 0.0243631 -0.0441708)
(1.3867 0.0618539 -0.0678832)
(0.564627 0.152955 -0.0136701)
(0.610708 0.14646 -0.0167811)
(0.689809 0.136565 -0.0221828)
(1.11041 0.0912616 -0.0528041)
(1.24102 0.078544 -0.0617908)
(1.24605 0.0779679 -0.0620011)
(1.24855 0.0776819 -0.0621055)
(1.38503 0.0620448 -0.0678135)
(0.695645 0.135835 -0.0225813)
(0.817731 0.120563 -0.0309184)
(0.828928 0.119431 -0.0317794)
(0.833933 0.118925 -0.0321643)
(0.968067 0.105366 -0.0424786)
(0.972231 0.104945 -0.0427988)
(1.03375 0.0987265 -0.0475291)
(1.10708 0.0915859 -0.0525749)
(1.458 0.0384854 0.000408498)
(1.4613 0.0381056 0.000527708)
(1.46906 0.0372115 0.000808341)
(1.40536 0.0438709 0.00220391)
(1.41227 0.0432555 0.00151975)
(1.41711 0.042825 0.00104107)
(1.41982 0.0425837 0.000772794)
(1.42459 0.0420863 0.000643437)
(1.42834 0.0416951 0.0005417)
(1.43543 0.0409553 0.000349304)
(1.4394 0.0405414 0.000241658)
(1.44623 0.0398289 5.63467e-005)
(1.44739 0.0397077 2.48233e-005)
(1.45038 0.039364 0.000132715)
(1.45206 0.0391706 0.000193415)
(1.45455 0.038883 0.000283701)
(0.562931 0.15325 -0.0136214)
(0.56195 0.153421 -0.0135933)
(0.561382 0.153577 -0.0136513)
(0.560058 0.153956 -0.0138075)
(0.559814 0.15404 -0.0138548)
(0.560284 0.153877 -0.0137634)
(0.56068 0.153769 -0.013723)
(1.66301 0.0241283 -0.161438)
(1.66305 0.0241276 -0.160372)
(1.66305 0.0241276 -0.158787)
(0.00135173 0.17864 -0.0013376)
(0.00139321 0.17864 -0.00174663)
(0.00146179 0.17864 -0.0021534)
(-0.100844 0.158414 -0.00242584)
(-0.10626 0.157918 -0.00250342)
(-0.0388715 0.1641 -0.00153821)
(-0.0453678 0.163504 -0.00163126)
(-0.00889008 0.166699 -0.00121257)
(-0.0096976 0.166624 -0.00118503)
(-0.0159341 0.166204 -0.00120968)
(-0.110773 0.157504 -0.00256805)
(-0.363393 0.0970531 -0.0421759)
(-0.352092 0.10214 -0.0378814)
(-0.324581 0.111437 -0.0270688)
(-0.329924 0.109459 -0.0284726)
(-0.338561 0.108463 -0.0334671)
(-0.352237 0.103088 -0.0386458)
(-0.291585 0.118475 -0.0159901)
(-0.281966 0.120819 -0.0135415)
(-0.37905 0.0925527 -0.0566004)
(-0.365824 0.0989092 -0.0493564)
(-0.365736 0.0977053 -0.0454245)
(-0.338418 0.107142 -0.0322665)
(0.196844 0.119345 -0.205993)
(0.0761395 0.121272 -0.205621)
(-0.311998 0.114145 -0.178177)
(-0.330639 0.10693 -0.175359)
(-0.339381 0.10267 -0.175313)
(-0.361853 0.0902128 -0.172035)
(-0.283983 0.12242 -0.180979)
(-0.296665 0.119129 -0.178738)
(0.436103 0.17864 0.0111472)
(0.397949 0.17864 -0.00964462)
(0.344446 0.17864 0.0294245)
(0.254067 0.17864 0.0414057)
(0.216344 0.17864 -0.013685)
(0.190177 0.17864 0.0455198)
(0.00135307 0.17864 -0.00110234)
(0.00135858 0.17864 -0.000139596)
(0.0937105 0.17864 -0.0176499)
(0.0474377 0.17864 0.0290849)
(0.0868698 0.17864 0.0385933)
(0.135057 0.17864 0.0444416)
(0.0413749 0.17864 -0.0167451)
(0.026465 0.17864 -0.0151122)
(0.0145941 0.17864 -0.012411)
(0.00871457 0.17864 0.0108168)
(0.0139838 0.17864 0.0146526)
(0.0243852 0.17864 0.0202658)
(0.00320302 0.17864 -0.00564256)
(0.00225751 0.17864 -0.00424019)
(0.00477926 0.17864 -0.00731769)
(0.00717802 0.17864 -0.00916632)
(0.00981672 0.17864 -0.0106325)
(0.00176854 0.17864 -0.00319955)
(0.00145371 0.17864 0.000409251)
(0.00166626 0.17864 0.00131935)
(0.00223829 0.17864 0.00285256)
(0.00329877 0.17864 0.00478376)
(0.00542001 0.17864 0.00757178)
(0.512062 0.162104 -0.00887806)
(0.511593 0.163027 -0.00874356)
(0.512452 0.161336 -0.00898986)
(0.511443 0.163491 -0.00870059)
(0.510901 0.165169 -0.00854522)
(0.510863 0.165288 -0.00853426)
(0.510762 0.165599 -0.00850542)
(0.510493 0.16724 -0.00842823)
(0.510141 0.16938 -0.00832756)
(0.510107 0.170377 -0.00831771)
(0.509925 0.175644 -0.00826568)
(0.509908 0.176721 -0.00958768)
(0.510929 0.16605 -0.00959661)
(0.51115 0.164988 -0.00959854)
(0.51048 0.168204 -0.00959268)
(0.510244 0.169336 -0.00959063)
(0.510149 0.17142 -0.00958979)
(0.511437 0.164242 -0.00960105)
(0.511536 0.163986 -0.00960192)
(0.512035 0.162691 -0.00960627)
(0.512101 0.162517 -0.00960686)
(0.512761 0.161361 -0.00961263)
(0.513121 0.160729 -0.00961577)
(0.51358 0.160155 -0.00961979)
(0.514304 0.159248 -0.00962612)
(0.514469 0.159099 -0.00962756)
(0.515547 0.158128 -0.00963698)
(0.515781 0.157917 -0.00963903)
(0.516864 0.157225 -0.0096485)
(0.517466 0.15684 -0.00965376)
(0.518498 0.156383 -0.00966279)
(0.519329 0.156015 -0.00967005)
(0.520531 0.155691 -0.00968056)
(0.522141 0.155257 -0.00969463)
(0.523303 0.155104 -0.00970482)
(0.525625 0.154796 -0.00972515)
(0.300439 0.176004 -0.0115223)
(0.312388 0.17452 -0.0115587)
(0.315402 0.174205 -0.0115316)
(0.365981 0.169156 -0.0116768)
(0.384348 0.167448 -0.0120397)
(0.358735 0.16983 -0.0115336)
(0.360341 0.16968 -0.0115653)
(0.336353 0.172013 -0.0113432)
(0.345109 0.171097 -0.0112644)
(0.33314 0.172349 -0.0113721)
(0.310778 0.174689 -0.0115732)
(0.388055 0.167103 -0.0121129)
(-0.000195074 0.172757 -0.000910597)
(-0.00026651 0.172641 -0.000923591)
(-0.00773375 0.166926 -0.00127661)
(-0.00716161 0.167038 -0.0013083)
(-0.00714006 0.167046 -0.00130877)
(-0.00535025 0.167714 -0.00134377)
(-0.00554596 0.167624 -0.00134342)
(-0.00585629 0.167511 -0.00133667)
(-0.0039434 0.168524 -0.00131706)
(-0.00412698 0.168418 -0.00132055)
(-0.00233256 0.169832 -0.0012202)
(-0.00252758 0.169644 -0.00123681)
(-0.00257518 0.169605 -0.00123964)
(-0.00108786 0.171306 -0.00107295)
(-0.00113745 0.171226 -0.00108197)
(-0.00125756 0.171086 -0.00109586)
(-0.000172841 0.17281 -0.0009041)
(0.000899834 0.175762 -0.000538947)
(0.000648511 0.174795 -0.000663953)
(0.000645352 0.174788 -0.00066487)
(0.000556183 0.174572 -0.000690939)
(-0.0013188 0.171014 -0.00110294)
(0.512768 0.16089 -0.00904402)
(0.513566 0.159763 -0.00918106)
(0.515081 0.15815 -0.00919486)
(0.514982 0.15823 -0.00920327)
(0.515567 0.157755 -0.00915341)
(0.514491 0.15876 -0.00919623)
(0.513612 0.159709 -0.00918361)
(0.513578 0.159746 -0.00918312)
(0.516874 0.156695 -0.00904198)
(0.516866 0.156701 -0.00904262)
(0.51568 0.157663 -0.00914373)
(1.66398 0.0694277 -0.0745234)
(1.66395 0.55036 -0.0729235)
(1.66395 0.55036 -0.0729244)
(1.66332 0.55036 -0.0689875)
(1.66364 0.55036 -0.069025)
(1.66394 0.55036 -0.0729252)
(1.66393 0.55036 -0.072927)
(1.66389 0.55036 -0.0729346)
(1.66396 0.55036 -0.0729227)
(1.66396 0.55036 -0.0690611)
(1.66396 0.55036 -0.0690616)
(1.66386 0.55036 -0.0729401)
(1.66385 0.55036 -0.0729411)
(1.66381 0.55036 -0.0729453)
(1.66381 0.55036 -0.0690438)
(1.66385 0.55036 -0.0690483)
(1.66387 0.55036 -0.0690506)
(1.66389 0.55036 -0.069053)
(1.66393 0.55036 -0.0690582)
(1.66394 0.55036 -0.0690594)
(1.66395 0.55036 -0.06906)
(1.66395 0.55036 -0.0690605)
(1.66364 0.55036 -0.0729632)
(1.66332 0.55036 -0.0729989)
(1.66227 0.55036 -0.0688677)
(1.66266 0.55036 -0.0730701)
(1.66178 0.55036 -0.073166)
(1.66135 0.55036 -0.0687906)
(1.66135 0.55036 -0.0732079)
(1.65872 0.55036 -0.0685707)
(1.65872 0.55036 -0.0734639)
(1.65346 0.550361 -0.0681309)
(1.53235 0.550363 -0.0626421)
(1.53343 0.550363 -0.062543)
(1.53342 0.550363 -0.07944)
(1.53235 0.550363 -0.0793414)
(1.65347 0.550361 -0.0739759)
(1.64683 0.550361 -0.0746237)
(1.64295 0.550361 -0.0672512)
(1.64296 0.550361 -0.0749146)
(1.62192 0.550361 -0.0654918)
(1.62192 0.550361 -0.0764986)
(1.60481 0.550362 -0.0640604)
(1.5958 0.550362 -0.0784646)
(1.5798 0.550362 -0.0629706)
(1.5798 0.550362 -0.0790312)
(1.56254 0.550363 -0.0622188)
(1.55871 0.550363 -0.0797778)
(1.55871 0.550363 -0.0622614)
(1.55696 0.550363 -0.0798397)
(1.55344 0.550363 -0.0623201)
(1.55344 0.550363 -0.0797799)
(1.5508 0.550363 -0.0623495)
(1.5508 0.550363 -0.0797351)
(1.54816 0.550363 -0.0623789)
(1.54816 0.550363 -0.0796903)
(1.54553 0.550363 -0.0624083)
(1.54553 0.550363 -0.0796455)
(1.54289 0.550363 -0.0624376)
(1.54289 0.550363 -0.0796007)
(1.54157 0.550363 -0.0624523)
(1.54157 0.550363 -0.0795783)
(1.54025 0.550363 -0.062467)
(1.54025 0.550363 -0.0795559)
(1.53893 0.550363 -0.0624817)
(1.53893 0.550363 -0.0795335)
(1.53761 0.550363 -0.0624964)
(1.53762 0.550363 -0.0795111)
(1.5363 0.550363 -0.0625111)
(1.5363 0.550363 -0.0794887)
(1.53498 0.550363 -0.0625257)
(1.53498 0.550363 -0.0794664)
(1.53366 0.550363 -0.079444)
(1.664 0.162859 -0.0672288)
(1.664 0.162859 -0.0747543)
(1.66398 0.518067 -0.0732176)
(1.66398 0.518067 -0.0687654)
(1.66397 0.0694358 -0.0674569)
(1.66398 0.0694273 -0.0674594)
(1.66392 0.0694317 -0.0674459)
(1.66387 0.0694224 -0.0674515)
(1.6628 0.0692336 -0.0746312)
(1.66339 0.0693382 -0.0745709)
(1.66356 0.0693674 -0.0674215)
(1.66339 0.0693383 -0.0674065)
(1.66369 0.0693906 -0.0674394)
(1.66376 0.0694031 -0.067449)
(1.66392 0.0694304 -0.0745368)
(1.66394 0.0694347 -0.0745367)
(1.66384 0.0694163 -0.0745291)
(1.66396 0.0694388 -0.0674514)
(1.66396 0.0694378 -0.0674498)
(1.66395 0.0694368 -0.067448)
(1.56623 0.0521628 -0.0585558)
(1.59424 0.0571143 -0.0810308)
(1.66394 0.0694357 -0.0674469)
(1.66394 0.0694347 -0.0674467)
(1.66369 0.0693907 -0.0745407)
(1.66376 0.0694031 -0.0745335)
(1.6638 0.0694095 -0.0674532)
(1.66377 0.0694054 -0.0674508)
(1.66382 0.0694134 -0.0745275)
(1.66382 0.0694136 -0.0674555)
(1.66395 0.0694362 -0.0745357)
(1.66396 0.069438 -0.0745332)
(1.66384 0.0694163 -0.0674543)
(1.65928 0.0686102 -0.0749908)
(1.66162 0.0690251 -0.0747515)
(1.66163 0.0690255 -0.0672453)
(1.65928 0.068611 -0.0670317)
(1.65463 0.0677884 -0.0754648)
(1.65463 0.0677899 -0.0666086)
(1.6455 0.0661746 -0.0763955)
(1.64551 0.0661773 -0.0657776)
(1.62776 0.0630391 -0.0782038)
(1.62785 0.0630559 -0.0641691)
(1.59425 0.0571165 -0.0611085)
(1.66397 0.0694396 -0.0745297)
(1.6628 0.0692338 -0.0673527)
(1.56397 0.0512193 -0.0835724)
(1.664 0.162857 -0.0749594)
(1.664 0.162854 -0.0749545)
(1.66402 0.309881 -0.0668507)
(1.66399 0.421195 -0.0673897)
(1.664 0.356608 -0.0669789)
(1.66399 0.421192 -0.0673839)
(1.664 0.421197 -0.0673939)
(1.66401 0.356606 -0.0672805)
(1.66396 0.518069 -0.0685309)
(1.66396 0.518066 -0.0685377)
(1.66398 0.485776 -0.068074)
(1.664 0.292025 -0.0751716)
(1.66402 0.309881 -0.0751323)
(1.664 0.292025 -0.0751618)
(1.66398 0.485776 -0.0739091)
(1.664 0.421197 -0.0745891)
(1.66396 0.518069 -0.0734522)
(1.664 0.162859 -0.0670237)
(1.66399 0.162859 -0.0670203)
(1.664 0.162854 -0.0670287)
(1.66401 0.356606 -0.0747026)
(1.664 0.356608 -0.0749945)
(1.66399 0.421195 -0.0745934)
(1.66399 0.421192 -0.0745992)
(0.324439 0.173805 -0.0110512)
(0.312443 0.174933 -0.0112488)
(0.558564 0.154313 -0.0146374)
(0.558518 0.154315 -0.0146821)
(0.558414 0.15432 -0.0147813)
(0.558345 0.154323 -0.0148475)
(0.5582 0.15433 -0.0149858)
(0.558887 0.154256 -0.0143984)
(0.558658 0.154296 -0.0145684)
(0.559043 0.154228 -0.0142828)
(0.559625 0.154087 -0.0139565)
(0.559524 0.154112 -0.0140107)
(0.559118 0.154214 -0.014229)
(0.559109 0.154216 -0.0142337)
(1.71692 2.86523e-005 0.293539)
(1.63671 9.05734e-005 0.248726)
(1.69035 6.66749e-017 0.287192)
(1.67491 5.7352e-005 0.279943)
(1.73458 1.7168e-005 0.294523)
(1.73491 1.69544e-005 0.294531)
(1.75204 5.61437e-006 0.293186)
(1.75193 5.68573e-006 0.293201)
(1.75619 2.83066e-006 0.29262)
(1.66305 0.0241252 -0.160372)
(1.66305 0.0242853 -0.0766707)
(1.51216 0.0420274 -0.0861116)
(1.52487 0.0406615 -0.0854885)
(1.52948 0.0401658 -0.0852624)
(1.54641 0.0383471 -0.0844328)
(1.40045 0.0600805 -0.0690861)
(1.40035 0.0600275 -0.0692866)
(1.40015 0.0599234 -0.0696801)
(1.4 0.0598 -0.0701115)
(1.39996 0.0597667 -0.0702277)
(1.39987 0.0596189 -0.0707133)
(1.39986 0.0595301 -0.0709917)
(1.39985 0.0595127 -0.071046)
(1.3999 0.0592959 -0.0716953)
(1.39995 0.0592336 -0.0718708)
(1.40004 0.0591106 -0.0722173)
(1.40025 0.0589316 -0.0726933)
(1.40033 0.0588614 -0.07288)
(1.40053 0.0587349 -0.0731979)
(1.40068 0.0586412 -0.0734332)
(1.40088 0.0585456 -0.0736577)
(1.40126 0.0583614 -0.0740899)
(1.40148 0.0582594 -0.0743294)
(1.40211 0.0580146 -0.0748603)
(1.40256 0.0578435 -0.0752313)
(1.40403 0.0573961 -0.0760992)
(1.40538 0.0569858 -0.0768953)
(1.40604 0.0568259 -0.077163)
(1.40977 0.0559128 -0.0786925)
(1.41023 0.0558226 -0.0788132)
(1.41456 0.0549778 -0.0799446)
(1.42151 0.0536215 -0.0817611)
(1.43169 0.0520148 -0.0832744)
(1.43978 0.050738 -0.084477)
(1.44366 0.0501862 -0.0848667)
(1.46504 0.0474254 -0.0861001)
(1.47002 0.0467824 -0.0863874)
(1.47787 0.045851 -0.0865426)
(1.49742 0.043671 -0.0862968)
(1.56397 0.0383837 -0.0710701)
(1.51347 0.0427628 -0.0558922)
(1.49752 0.0448 -0.0556474)
(1.48012 0.0470233 -0.0553802)
(1.46732 0.048746 -0.0556411)
(1.46523 0.0490454 -0.055772)
(1.44276 0.0522687 -0.0571819)
(1.43831 0.052949 -0.0576528)
(1.43194 0.0539958 -0.0586512)
(1.4205 0.0558746 -0.0604432)
(1.41475 0.0569422 -0.0618817)
(1.41269 0.0573253 -0.0623979)
(1.41046 0.0577893 -0.0631779)
(1.40731 0.058448 -0.0642854)
(1.40625 0.0587073 -0.0648258)
(1.40421 0.0592067 -0.0658667)
(1.40343 0.0593974 -0.0662641)
(1.40212 0.059783 -0.0672168)
(1.40103 0.0601716 -0.0683074)
(1.40142 0.0600245 -0.0678852)
(1.40118 0.0601099 -0.0681215)
(1.53954 0.0395675 -0.0571287)
(1.52952 0.0407958 -0.0566534)
(1.52404 0.0414672 -0.0563935)
(-0.365629 0.0964179 -0.0438219)
(-0.379023 0.0925183 -0.0565596)
(0.509908 0.156381 -0.00958768)
(0.480707 0.159311 -0.00938697)
(0.158649 0.119596 -0.205333)
(0.468687 0.160496 -0.00944188)
(0.456667 0.16168 -0.00949678)
(0.444647 0.162865 -0.0095517)
(0.432627 0.164049 -0.00960661)
(0.420609 0.165234 -0.00966151)
(0.408594 0.166418 -0.0097164)
(0.397949 0.167467 -0.00976502)
(0.396581 0.167601 -0.00977128)
(0.38457 0.168785 -0.00982615)
(0.380453 0.169191 -0.00984495)
(0.372553 0.169864 -0.0100106)
(0.366542 0.170375 -0.0101366)
(0.360532 0.170887 -0.0102626)
(0.354522 0.171399 -0.0103886)
(0.348511 0.171911 -0.0105146)
(0.342501 0.172422 -0.0106406)
(0.336491 0.172934 -0.0107666)
(0.330482 0.173446 -0.0108926)
(-0.00410702 0.168385 -0.00139325)
(0.30043 0.175984 -0.0114776)
(0.300414 0.175855 -0.011492)
(0.360372 0.169855 -0.0112821)
(0.348373 0.171022 -0.0111818)
(0.312402 0.174649 -0.011292)
(0.324446 0.173857 -0.0110284)
(0.324389 0.17343 -0.0111791)
(0.336379 0.172217 -0.0111435)
(0.372375 0.168725 -0.0114331)
)


// edges:

925
(
(0 1)
(85 0)
(1 86)
(87 85)
(86 2)
(2 3)
(3 87)
(5 4)
(4 1)
(0 5)
(88 4)
(5 6)
(6 7)
(7 88)
(2 7)
(6 3)
(89 90)
(90 91)
(91 92)
(92 93)
(93 94)
(94 95)
(95 96)
(96 97)
(98 99)
(97 8)
(8 9)
(9 98)
(100 101)
(101 102)
(102 89)
(10 11)
(11 103)
(104 10)
(103 105)
(105 106)
(106 107)
(107 108)
(99 104)
(108 109)
(109 100)
(8 12)
(12 13)
(13 9)
(15 14)
(14 11)
(10 15)
(12 110)
(111 112)
(15 13)
(113 111)
(110 113)
(112 114)
(114 115)
(115 14)
(35 16)
(16 17)
(17 116)
(117 118)
(119 117)
(120 119)
(118 121)
(121 122)
(123 124)
(124 125)
(116 126)
(126 127)
(127 120)
(122 123)
(128 129)
(125 128)
(129 130)
(130 131)
(132 133)
(133 134)
(134 135)
(135 136)
(136 137)
(137 138)
(139 17)
(138 140)
(140 141)
(16 142)
(141 143)
(143 139)
(144 38)
(38 18)
(18 145)
(146 19)
(19 147)
(19 148)
(148 39)
(149 147)
(39 150)
(150 144)
(151 152)
(152 40)
(41 153)
(42 41)
(154 41)
(42 146)
(155 156)
(43 157)
(157 151)
(44 158)
(159 45)
(160 44)
(45 161)
(161 162)