/*--------------------------------*- C++ -*----------------------------------*\
| =========                 |                                                 |
| \\      /  F ield         | OpenFOAM: The Open Source CFD Toolbox           |
|  \\    /   O peration     | Version:  5.x                                   |
|   \\  /    A nd           | Web:      www.OpenFOAM.org                      |
|    \\/     M anipulation  |                                                 |
\*---------------------------------------------------------------------------*/
/*   Windows 32 and 64 bit porting by blueCAPE: http://www.bluecape.com.pt   *\
|  Based on Windows porting (2.0.x v4) by Symscape: http://www.symscape.com   |
\*---------------------------------------------------------------------------*/
FoamFile
{
    version     2.0;
    format      ascii;
    class       featureEdgeMesh;
    location    "constant/triSurface";
    object      NEMO4_Wing.eMesh;
}
// * * * * * * * * * * * * * * * * * * * * * * * * * * * * * * * * * * * * * //


// points:

451
(
(0.325339 0.73384 -0.010185)
(0.325972 0.73384 -0.0421696)
(0.325972 0.67384 -0.0421696)
(0.337969 0.67384 -0.0419324)
(0.337969 0.73384 -0.0419324)
(0.337337 0.73384 -0.00993588)
(0.509925 0.17864 -0.0082657)
(0.509908 0.17864 -0.00958768)
(0.440164 1.65346 0.0324471)
(0.440152 1.65382 0.0315651)
(0.114891 0.67384 -0.0463428)
(0.114891 0.73384 -0.0463428)
(0.102893 0.73384 -0.04658)
(0.102893 0.67384 -0.04658)
(0.325339 0.703806 -0.010185)
(0.325972 0.72684 -0.0421696)
(0.325972 0.68084 -0.0421696)
(0.32534 0.67384 -0.0102227)
(0.337337 0.67384 -0.00997267)
(0.337337 0.703839 -0.00993588)
(0.337969 0.68084 -0.0419324)
(0.337969 0.72684 -0.0419324)
(0.102298 0.73384 -0.0164663)
(0.1023 0.67384 -0.0165938)
(0.114299 0.67384 -0.0164129)
(0.114297 0.73384 -0.016314)
(0.114595 1.64107 0.0206923)
(0.114034 1.64132 0.019734)
(0.123564 1.64579 0.0264755)
(0.114891 0.68084 -0.0463428)
(0.114891 0.72684 -0.0463428)
(0.102893 0.72684 -0.04658)
(0.102893 0.68084 -0.04658)
(0.325781 0.692349 -0.0325297)
(0.325823 0.69085 -0.0346711)
(0.32587 0.689745 -0.0370403)
(0.325693 0.70897 -0.028077)
(0.32568 0.706445 -0.0274004)
(0.325715 0.69634 -0.0291818)
(0.325744 0.694198 -0.0306812)
(0.32592 0.718612 -0.0395654)
(0.32587 0.717935 -0.0370403)
(0.325715 0.71134 -0.0291818)
(0.32592 0.689068 -0.0395654)
(0.325972 0.68884 -0.0421696)
(0.32605 0.681189 -0.0461627)
(0.326023 0.689068 -0.0447738)
(0.326127 0.682227 -0.0500345)
(0.326073 0.689745 -0.0472989)
(0.326199 0.683921 -0.0536674)
(0.32612 0.69085 -0.0496681)
(0.326264 0.686221 -0.0569508)
(0.326162 0.692349 -0.0518095)
(0.32632 0.689056 -0.0597852)
(0.326199 0.694198 -0.053658)
(0.326365 0.69234 -0.0620843)
(0.326228 0.69634 -0.0551574)
(0.326399 0.695974 -0.0637783)
(0.32625 0.69871 -0.0562622)
(0.326419 0.699846 -0.0648158)
(0.326263 0.701235 -0.0569388)
(0.326426 0.70384 -0.0651651)
(0.326268 0.70384 -0.0571667)
(0.326419 0.707834 -0.0648158)
(0.326263 0.706445 -0.0569388)
(0.326399 0.711707 -0.0637783)
(0.32625 0.70897 -0.0562622)
(0.326365 0.71534 -0.0620843)
(0.326228 0.71134 -0.0551574)
(0.32632 0.718624 -0.0597852)
(0.326199 0.713482 -0.053658)
(0.326264 0.721459 -0.0569508)
(0.326162 0.715331 -0.0518095)
(0.326199 0.723759 -0.0536674)
(0.32612 0.71683 -0.0496681)
(0.326127 0.725453 -0.0500345)
(0.326073 0.717935 -0.0472989)
(0.32605 0.726491 -0.0461627)
(0.326023 0.718612 -0.0447738)
(0.325972 0.71884 -0.0421696)
(0.325675 0.70384 -0.0271725)
(0.32568 0.701235 -0.0274004)
(0.325693 0.69871 -0.028077)
(0.325823 0.71683 -0.0346711)
(0.325781 0.715331 -0.0325297)
(0.325744 0.713482 -0.0306812)
(0.338196 0.694198 -0.0534208)
(0.33816 0.692349 -0.0515723)
(0.338117 0.69085 -0.0494309)
(0.338071 0.689745 -0.0470617)
(0.338021 0.689068 -0.0445366)
(0.337969 0.68884 -0.0419324)
(0.337918 0.689068 -0.0393282)
(0.337868 0.689745 -0.0368031)
(0.337712 0.69634 -0.0289446)
(0.337691 0.69871 -0.0278398)
(0.337677 0.701235 -0.0271632)
(0.337673 0.70384 -0.0269353)
(0.337677 0.706445 -0.0271632)
(0.337691 0.70897 -0.0278398)
(0.337712 0.71134 -0.0289446)
(0.337742 0.713482 -0.030444)
(0.337779 0.715331 -0.0322925)
(0.337821 0.71683 -0.0344339)
(0.337868 0.717935 -0.0368031)
(0.338048 0.681189 -0.0459255)
(0.338125 0.682227 -0.0497973)
(0.338196 0.683921 -0.0534302)
(0.337821 0.69085 -0.0344339)
(0.337779 0.692349 -0.0322925)
(0.337742 0.694198 -0.030444)
(0.337918 0.718612 -0.0393282)
(0.337969 0.71884 -0.0419324)
(0.338048 0.726491 -0.0459255)
(0.338021 0.718612 -0.0445366)
(0.338125 0.725453 -0.0497973)
(0.338071 0.717935 -0.0470617)
(0.338196 0.723759 -0.0534302)
(0.338117 0.71683 -0.0494309)
(0.338261 0.721459 -0.0567136)
(0.33816 0.715331 -0.0515723)
(0.338317 0.718624 -0.059548)
(0.338196 0.713482 -0.0534208)
(0.338363 0.71534 -0.0618471)
(0.338226 0.71134 -0.0549202)
(0.338396 0.711707 -0.0635411)
(0.338248 0.70897 -0.056025)
(0.338417 0.707834 -0.0645786)
(0.338261 0.706445 -0.0567016)
(0.338424 0.70384 -0.0649279)
(0.338266 0.70384 -0.0569295)
(0.338417 0.699846 -0.0645786)
(0.338261 0.701235 -0.0567016)
(0.338396 0.695974 -0.0635411)
(0.338248 0.69871 -0.056025)
(0.338363 0.69234 -0.0618471)
(0.338226 0.69634 -0.0549202)
(0.338317 0.689056 -0.059548)
(0.338261 0.686221 -0.0567136)
(0.059653 0.17864 -0.0176314)
(0.0545351 0.17864 -0.0173595)
(0.11958 0.17864 -0.0167816)
(0.090493 0.17864 -0.017703)
(0.0870606 0.17864 -0.017695)
(0.00133627 0.17864 -0.000852753)
(0.00141408 0.17864 6.6495e-005)
(0.00134305 0.17864 -0.000946229)
(0.00140913 0.17864 -0.00185748)
(0.00142702 0.17864 -0.00195803)
(0.0017598 0.17864 0.00162548)
(0.00192337 0.17864 0.00202533)
(0.00162139 0.17864 0.00105828)
(0.00143252 0.17864 0.000284313)
(0.00225751 0.17864 -0.00424019)
(0.0020846 0.17864 -0.0038722)
(0.00259774 0.17864 -0.00474482)
(0.00477925 0.17864 -0.00731768)
(0.00385305 0.17864 -0.00633338)
(0.00531764 0.17864 -0.00773197)
(0.00320301 0.17864 -0.00564256)
(0.00146177 0.17864 -0.0021534)
(0.00169171 0.17864 -0.00293752)
(0.00176855 0.17864 -0.00319955)
(0.00984445 0.17864 -0.0106455)
(0.00867704 0.17864 -0.00999891)
(0.0104971 0.17864 -0.0108876)
(0.0143082 0.17864 -0.0123014)
(0.00692843 0.17864 -0.00897147)
(0.00720188 0.17864 -0.00918189)
(0.0246483 0.17864 -0.0148038)
(0.0222047 0.17864 -0.0142232)
(0.0382921 0.17864 -0.0164966)
(0.0381554 0.17864 -0.0164893)
(0.0146513 0.17864 -0.0124287)
(0.37977 0.17864 -0.0099348)
(0.303673 0.17864 -0.0113731)
(0.249665 0.17864 -0.0129401)
(0.144777 0.17864 -0.0159835)
(0.467606 0.17864 0.00340163)
(0.442729 1.58864 -0.00755569)
(0.447031 0.17864 0.00838979)
(0.427207 0.17864 0.0131958)
(0.384485 0.17864 0.0221834)
(0.383487 0.17864 0.0223627)
(0.340945 0.17864 0.0300069)
(0.319341 0.17864 0.0332501)
(0.00870604 0.17864 0.0107671)
(0.00910226 0.17864 0.0111462)
(0.0143235 0.17864 0.0148648)
(0.00576921 0.17864 0.00795717)
(0.022661 0.17864 0.0194371)
(0.0299256 0.17864 0.0225968)
(0.0153474 0.17864 0.0154263)
(0.0347224 0.17864 0.0246832)
(0.0451646 0.17864 0.0282451)
(0.0607889 0.17864 0.032739)
(0.0682932 0.17864 0.0347528)
(0.0884331 0.17864 0.0388691)
(0.0493019 0.17864 0.0296564)
(0.191552 0.17864 0.0454833)
(0.222361 0.17864 0.04401)
(0.189862 0.17864 0.045494)
(0.163734 0.17864 0.0456597)
(0.157335 0.17864 0.0454064)
(0.13809 0.17864 0.0446445)
(0.124872 0.17864 0.0434348)
(0.111017 0.17864 0.0421667)
(0.0925932 0.17864 0.0394766)
(0.301074 0.17864 0.0359924)
(0.258406 0.17864 0.0409795)
(0.254781 0.17864 0.041285)
(0.222531 0.17864 0.0440018)
(0.391701 0.17864 -0.0097093)
(0.482665 0.17864 -0.00939399)
(0.442716 1.58864 -0.00850747)
(0.00573441 0.17864 0.00792388)
(0.00360576 0.17864 0.00524848)
(0.00330337 0.17864 0.0047345)
(0.00241155 0.17864 0.00321865)
(0.00230814 0.17864 0.00296586)
(0.176484 1.65232 0.0388258)
(0.176658 1.65231 0.0388345)
(0.18145 1.65219 0.0390734)
(0.182042 1.65218 0.039103)
(0.180263 1.65222 0.0390143)
(0.180857 1.65221 0.0390439)
(0.183226 1.65215 0.039162)
(0.183817 1.65213 0.0391914)
(0.182634 1.65216 0.0391325)
(0.185002 1.6521 0.0392505)
(0.186191 1.65207 0.0393098)
(0.187386 1.65204 0.0393694)
(0.189808 1.65198 0.0394901)
(0.191293 1.65194 0.0395642)
(0.192295 1.65193 0.0395724)
(0.2038 1.65183 0.0396674)
(0.283757 1.65559 0.0292141)
(0.259664 1.65566 0.0293562)
(0.239101 1.65158 0.0398361)
(0.257899 1.65163 0.0394486)
(0.239828 1.65572 0.0294732)
(0.233249 1.65569 0.0296438)
(0.234858 1.65157 0.0399236)
(0.242001 1.65571 0.0294604)
(0.440161 1.65356 0.0322185)
(0.440158 1.65364 0.0320061)
(0.368212 1.65252 0.0357676)
(0.371696 1.65256 0.0356084)
(0.358512 1.65242 0.0361413)
(0.39862 1.65292 0.0343658)
(0.399815 1.65293 0.0343106)
(0.355927 1.65491 0.0299459)
(0.295503 1.65548 0.0293332)
(0.36821 1.65476 0.0301661)
(0.370549 1.65473 0.030208)
(0.224555 1.65564 0.0298693)
(0.27725 1.65169 0.0390497)
(0.289647 1.65173 0.0387942)
(0.297083 1.6518 0.0385077)
(0.317309 1.65201 0.0377286)
(0.44227 1.59818 -0.00793649)
(0.442141 1.60094 -0.00777119)
(0.440868 1.63121 0.0046609)
(0.440769 1.63387 0.00674019)
(0.440391 1.64533 0.0203584)
(0.440425 1.64401 0.0170696)
(0.44038 1.64563 0.019473)
(0.440437 1.64372 0.0179573)
(0.440443 1.64349 0.0176291)
(0.440496 1.64189 0.015845)
(0.440603 1.63863 0.0122207)
(0.440609 1.63847 0.0120463)
(0.440659 1.63684 0.00907025)
(0.440597 1.63873 0.0111509)
(0.440592 1.63889 0.0113252)
(0.440433 1.64371 0.0166275)
(0.440668 1.63668 0.010054)
(0.440732 1.63495 0.00868731)
(0.440781 1.63363 0.00764517)
(0.44088 1.63099 0.00556194)
(0.441197 1.6227 -0.000995565)
(0.441056 1.62626 0.00115956)
(0.440974 1.62835 0.00241865)
(0.440978 1.62836 0.00347654)
(0.441041 1.62677 0.00250915)
(0.441069 1.62606 0.00208208)
(0.44121 1.62252 -7.30745e-005)
(0.441266 1.62095 -0.00205593)
(0.441281 1.62071 -0.0011726)
(0.441354 1.61899 -0.00191024)
(0.441377 1.61844 -0.0021442)
(0.441531 1.61461 -0.00476943)
(0.441364 1.6186 -0.00306183)
(0.441341 1.61915 -0.00282682)
(0.441544 1.61447 -0.00384392)
(0.441605 1.61302 -0.00446846)
(0.441629 1.61245 -0.0047091)
(0.441701 1.61067 -0.00609718)
(0.441616 1.61259 -0.00563039)
(0.441593 1.61314 -0.00539698)
(0.441714 1.61056 -0.00516881)
(0.441857 1.60733 -0.00595102)
(0.441892 1.60656 -0.00613641)
(0.441967 1.60467 -0.00754791)
(0.441879 1.60665 -0.00706916)
(0.441845 1.60742 -0.00688293)
(0.441978 1.60461 -0.00660786)
(0.44208 1.60246 -0.00673574)
(0.442154 1.60088 -0.00682931)
(0.442283 1.59813 -0.00699233)
(0.1109 1.63852 0.017985)
(0.107212 1.63601 0.0150746)
(0.103776 1.63357 0.012173)
(0.100978 1.63115 0.00991223)
(0.0985408 1.62885 0.00804572)
(0.0963917 1.62666 0.00648611)
(0.106694 1.63625 0.0140476)
(0.110215 1.63884 0.0166864)
(0.119076 1.64346 0.0237712)
(0.118316 1.64368 0.0229505)
(0.114034 1.64126 0.019934)
(0.122965 1.64599 0.025778)
(0.11869 1.64354 0.0234508)
(0.128031 1.64812 0.0283718)
(0.125441 1.64708 0.0271031)
(0.122952 1.64603 0.0256498)
(0.118341 1.6438 0.0225659)
(0.122961 1.64605 0.0255852)
(0.100883 1.63121 0.00965542)
(0.106812 1.63612 0.0145644)
(0.0930163 1.62259 0.00321095)
(0.0895297 1.61846 0.00155275)
(0.0777303 1.59354 -0.00400933)
(0.0773203 1.59114 -0.00411829)
(0.0867663 1.61451 -0.00027673)
(0.114634 0.69634 -0.0333549)
(0.114612 0.69871 -0.0322501)
(0.1147 0.692349 -0.0367028)
(0.114663 0.694198 -0.0348543)
(0.114599 0.701235 -0.0315735)
(0.114594 0.70384 -0.0313457)
(0.114599 0.706445 -0.0315735)
(0.114612 0.70897 -0.0322501)
(0.114634 0.71134 -0.0333549)
(0.114663 0.713482 -0.0348543)
(0.1147 0.715331 -0.0367028)
(0.114742 0.71683 -0.0388442)
(0.114789 0.717935 -0.0412135)
(0.114839 0.689068 -0.0437386)
(0.114789 0.689745 -0.0412135)
(0.114742 0.69085 -0.0388442)
(0.114839 0.718612 -0.0437386)
(0.114891 0.71884 -0.0463428)
(0.11497 0.726491 -0.0503359)
(0.114942 0.718612 -0.048947)
(0.115046 0.725453 -0.0542077)
(0.114992 0.717935 -0.0514721)
(0.115118 0.723759 -0.0578405)
(0.115039 0.71683 -0.0538413)
(0.115183 0.721459 -0.061124)
(0.115081 0.715331 -0.0559827)
(0.115239 0.718624 -0.0639583)
(0.115118 0.713482 -0.0578312)
(0.115284 0.71534 -0.0662574)
(0.115147 0.71134 -0.0593306)
(0.115318 0.711707 -0.0679515)
(0.115169 0.70897 -0.0604354)
(0.115338 0.707834 -0.0689889)
(0.115183 0.706445 -0.061112)
(0.115345 0.70384 -0.0693383)
(0.115187 0.70384 -0.0613398)
(0.115338 0.699846 -0.0689889)
(0.115183 0.701235 -0.061112)
(0.115318 0.695974 -0.0679515)
(0.115169 0.69871 -0.0604354)
(0.115284 0.69234 -0.0662574)
(0.115147 0.69634 -0.0593306)
(0.115239 0.689056 -0.0639583)
(0.115118 0.694198 -0.0578312)
(0.115183 0.686221 -0.061124)
(0.115081 0.692349 -0.0559827)
(0.115118 0.683921 -0.0578405)
(0.115039 0.69085 -0.0538413)
(0.115046 0.682227 -0.0542077)
(0.114992 0.689745 -0.0514721)
(0.11497 0.681189 -0.0503359)
(0.114942 0.689068 -0.048947)
(0.114891 0.68884 -0.0463428)
(0.102702 0.715331 -0.03694)
(0.102666 0.713482 -0.0350915)
(0.102636 0.71134 -0.0335921)
(0.102614 0.70897 -0.0324873)
(0.102666 0.694198 -0.0350915)
(0.102702 0.692349 -0.03694)
(0.102745 0.69085 -0.0390814)
(0.102792 0.689745 -0.0414507)
(0.102636 0.69634 -0.0335921)
(0.102614 0.69871 -0.0324873)
(0.102841 0.718612 -0.0439758)
(0.102792 0.717935 -0.0414507)
(0.102745 0.71683 -0.0390814)
(0.102601 0.706445 -0.0318107)
(0.102596 0.70384 -0.0315829)
(0.102601 0.701235 -0.0318107)
(0.102841 0.689068 -0.0439758)
(0.102893 0.68884 -0.04658)
(0.102972 0.681189 -0.0505731)
(0.102944 0.689068 -0.0491842)
(0.103049 0.682227 -0.0544449)
(0.102994 0.689745 -0.0517093)
(0.10312 0.683921 -0.0580777)
(0.103041 0.69085 -0.0540785)
(0.103185 0.686221 -0.0613612)
(0.103083 0.692349 -0.0562199)
(0.103241 0.689056 -0.0641955)
(0.10312 0.694198 -0.0580684)
(0.103287 0.69234 -0.0664947)
(0.10315 0.69634 -0.0595678)
(0.10332 0.695974 -0.0681887)
(0.103172 0.69871 -0.0606726)
(0.103341 0.699846 -0.0692261)
(0.103185 0.701235 -0.0613492)
(0.103348 0.70384 -0.0695755)
(0.103189 0.70384 -0.061577)
(0.103341 0.707834 -0.0692261)
(0.103185 0.706445 -0.0613492)
(0.10332 0.711707 -0.0681887)
(0.103172 0.70897 -0.0606726)
(0.103287 0.71534 -0.0664947)
(0.10315 0.71134 -0.0595678)
(0.103241 0.718624 -0.0641955)
(0.10312 0.713482 -0.0580684)
(0.103185 0.721459 -0.0613612)
(0.103083 0.715331 -0.0562199)
(0.10312 0.723759 -0.0580777)
(0.103041 0.71683 -0.0540785)
(0.103049 0.725453 -0.0544449)
(0.102994 0.717935 -0.0517093)
(0.102972 0.726491 -0.0505731)
(0.102944 0.718612 -0.0491842)
(0.102893 0.71884 -0.04658)
(0.331338 0.73384 -0.0100573)
(0.102298 0.725837 -0.0164837)
(0.10505 0.67384 -0.0165555)
(0.112177 0.67384 -0.0164564)
(0.112179 0.73384 -0.0163525)
(0.10723 0.73384 -0.0164095)
(0.114299 0.681843 -0.0164)
(0.335736 0.70383 -0.0099676)
(0.335651 0.67384 -0.0100062)
(0.331338 0.70382 -0.0100596)
)


// edges:

465
(
(14 0)
(0 1)
(1 15)
(33 34)
(34 35)
(36 37)
(38 39)
(40 41)
(42 36)
(39 33)
(16 2)
(2 17)
(35 43)
(43 44)
(45 16)
(44 46)
(47 45)
(46 48)
(49 47)
(48 50)
(51 49)
(50 52)
(53 51)
(52 54)
(55 53)
(54 56)
(57 55)
(56 58)
(59 57)
(58 60)
(61 59)
(60 62)
(63 61)
(62 64)
(65 63)
(64 66)
(67 65)
(66 68)
(69 67)
(68 70)
(71 69)
(70 72)
(73 71)
(72 74)
(75 73)
(74 76)
(77 75)
(76 78)
(15 77)
(78 79)
(79 40)
(37 80)
(80 81)
(81 82)
(82 38)
(41 83)
(83 84)
(84 85)
(85 42)
(18 3)
(3 20)
(4 5)
(21 4)
(5 19)
(86 87)
(87 88)
(88 89)
(89 90)
(90 91)
(91 92)
(92 93)
(94 95)
(95 96)
(96 97)
(97 98)
(98 99)
(99 100)
(100 101)
(101 102)
(102 103)
(103 104)
(20 105)
(105 106)
(106 107)
(93 108)
(108 109)
(109 110)
(110 94)
(104 111)
(111 112)
(113 21)
(112 114)
(115 113)
(114 116)
(117 115)
(116 118)
(119 117)
(118 120)
(121 119)
(120 122)
(123 121)
(122 124)
(125 123)
(124 126)
(127 125)
(126 128)
(129 127)
(128 130)
(131 129)
(130 132)
(133 131)
(132 134)
(135 133)
(134 136)
(137 135)
(136 86)
(138 137)
(107 138)
(139 140)
(141 142)
(142 143)
(143 139)
(144 145)
(146 144)
(147 146)
(148 147)
(149 150)
(151 149)
(152 151)
(145 152)
(153 154)
(155 153)
(156 157)
(158 156)
(159 155)
(157 159)
(160 148)
(161 160)
(162 161)
(154 162)
(163 164)
(165 163)
(166 165)
(167 158)
(168 167)
(164 168)
(169 170)
(171 172)
(172 169)
(173 166)
(170 173)
(140 171)
(174 175)
(175 176)
(176 177)
(177 141)
(178 6)
(6 179)
(180 178)
(181 180)
(182 181)
(183 182)
(184 183)
(185 184)
(186 187)
(187 188)
(189 186)
(190 191)
(192 190)
(188 192)
(193 194)
(191 193)
(195 196)
(196 197)
(198 195)
(194 198)
(199 200)
(201 199)
(202 201)
(203 202)
(204 203)
(205 204)
(206 205)
(207 206)
(197 207)
(208 185)
(209 208)
(210 209)
(211 210)
(200 211)
(212 174)
(213 212)
(7 213)
(214 7)
(215 189)
(216 215)
(217 216)
(218 217)
(219 218)
(150 219)
(7 6)
(220 221)
(222 223)
(224 225)
(225 222)
(226 227)
(228 226)
(223 228)
(227 229)
(229 230)
(230 231)
(231 232)
(232 233)
(233 234)
(234 235)
(236 237)
(238 239)
(240 241)
(242 238)
(243 240)
(237 243)
(244 245)
(246 247)
(248 246)
(247 249)
(249 250)
(8 244)
(250 8)
(251 252)
(253 251)
(254 253)
(245 9)
(9 254)
(241 255)
(235 242)
(239 256)
(256 257)
(252 236)
(257 258)
(258 259)
(259 248)
(260 261)
(262 263)
(8 264)
(265 266)
(266 9)
(264 267)
(267 268)
(269 270)
(270 271)
(272 273)
(273 274)
(274 275)
(275 265)
(268 269)
(263 272)
(276 277)
(277 278)
(278 279)
(280 281)
(281 282)
(282 262)
(271 276)
(283 284)
(284 285)
(285 286)
(287 280)
(279 283)
(288 289)
(289 290)
(291 292)
(292 293)
(293 287)
(286 288)
(294 295)
(295 296)
(290 294)
(297 298)
(298 299)
(299 291)
(300 301)
(301 302)
(303 304)
(304 305)
(305 297)
(296 300)
(261 303)
(306 307)
(307 308)
(308 309)
(309 179)
(302 306)
(214 260)
(310 311)
(312 313)
(314 315)
(316 317)
(27 317)
(318 26)
(319 320)
(319 321)
(28 318)
(322 26)
(28 322)
(323 324)
(325 324)
(27 326)
(327 326)
(314 328)
(312 329)
(310 26)
(330 331)
(332 333)
(331 334)
(335 336)
(337 338)
(338 335)
(336 339)
(339 340)
(340 341)
(341 342)
(24 10)
(10 29)
(30 11)
(11 25)
(343 344)
(342 343)
(344 345)
(345 346)
(346 347)
(348 349)
(349 350)
(350 337)
(347 351)
(351 352)
(353 30)
(352 354)
(355 353)
(354 356)
(357 355)
(356 358)
(359 357)
(358 360)
(361 359)
(360 362)
(363 361)
(362 364)
(365 363)
(364 366)
(367 365)
(366 368)
(369 367)
(368 370)
(371 369)
(370 372)
(373 371)
(372 374)
(375 373)
(374 376)
(377 375)
(376 378)
(379 377)
(378 380)
(381 379)
(380 382)
(383 381)
(382 384)
(385 383)
(384 386)
(29 385)
(386 387)
(387 348)
(388 389)
(390 391)
(389 390)
(392 393)
(393 394)
(394 395)
(22 12)
(12 31)
(32 13)
(13 23)
(396 392)
(397 396)
(398 399)
(399 400)
(400 388)
(391 401)
(401 402)
(402 403)
(403 397)
(395 404)
(404 405)
(406 32)
(405 407)
(408 406)
(407 409)
(410 408)
(409 411)
(412 410)
(411 413)
(414 412)
(413 415)
(416 414)
(415 417)
(418 416)
(417 419)
(420 418)
(419 421)
(422 420)
(421 423)
(424 422)
(423 425)
(426 424)
(425 427)
(428 426)
(427 429)
(430 428)
(429 431)
(432 430)
(431 433)
(434 432)
(433 435)
(436 434)
(435 437)
(438 436)
(437 439)
(31 438)
(439 440)
(440 398)
(11 12)
(13 10)
(5 441)
(441 0)
(4 1)
(2 3)
(17 14)
(19 18)
(22 442)
(442 23)
(23 443)
(444 24)
(443 444)
(445 446)
(25 445)
(447 25)
(446 22)
(19 448)
(449 18)
(17 449)
(448 450)
(450 14)
(24 447)
(316 27)
(321 320)
(28 26)
(327 27)
(315 328)
(313 329)
(311 26)
(330 334)
(29 32)
(31 30)
(20 16)
(15 21)
)

// * * * * * * * * * * * * * * * * * * * * * * * * * * * * * * * * * * * * * //


// ************************************************************************* //
