/*--------------------------------*- C++ -*----------------------------------*\
| =========                 |                                                 |
| \\      /  F ield         | OpenFOAM: The Open Source CFD Toolbox           |
|  \\    /   O peration     | Version:  5.x                                   |
|   \\  /    A nd           | Web:      www.OpenFOAM.org                      |
|    \\/     M anipulation  |                                                 |
\*---------------------------------------------------------------------------*/
/*   Windows 32 and 64 bit porting by blueCAPE: http://www.bluecape.com.pt   *\
|  Based on Windows porting (2.0.x v4) by Symscape: http://www.symscape.com   |
\*---------------------------------------------------------------------------*/
FoamFile
{
    version     2.0;
    format      ascii;
    class       featureEdgeMesh;
    location    "constant/triSurface";
    object      NEMO4_PropDisk.eMesh;
}
// * * * * * * * * * * * * * * * * * * * * * * * * * * * * * * * * * * * * * //


// points:

70
(
(-0.565012 0.000113407 0.165931)
(-0.560012 0.000113407 0.165931)
(-0.560012 0.000113407 -0.392869)
(-0.565012 0.000113407 -0.392869)
(-0.560012 0.0258932 0.164739)
(-0.565012 0.0258932 0.164739)
(-0.560012 0.051453 0.161173)
(-0.565012 0.051453 0.161173)
(-0.560012 0.0765748 0.155265)
(-0.565012 0.0765748 0.155265)
(-0.560012 0.101044 0.147063)
(-0.565012 0.101044 0.147063)
(-0.560012 0.124653 0.136639)
(-0.565012 0.124653 0.136639)
(-0.560012 0.147199 0.124081)
(-0.565012 0.147199 0.124081)
(-0.560012 0.16849 0.109497)
(-0.565012 0.16849 0.109497)
(-0.560012 0.188344 0.0930098)
(-0.565012 0.188344 0.0930098)
(-0.560012 0.206593 0.0747612)
(-0.565012 0.206593 0.0747612)
(-0.560012 0.223079 0.0549068)
(-0.565012 0.223079 0.0549068)
(-0.560012 0.237664 0.0336158)
(-0.565012 0.237664 0.0336158)
(-0.560012 0.250222 0.01107)
(-0.565012 0.250222 0.01107)
(-0.560012 0.260646 -0.0125384)
(-0.565012 0.260646 -0.0125384)
(-0.560012 0.268847 -0.0370079)
(-0.565012 0.268847 -0.0370079)
(-0.560012 0.274756 -0.0621297)
(-0.565012 0.274756 -0.0621297)
(-0.560012 0.278322 -0.0876895)
(-0.565012 0.278322 -0.0876895)
(-0.560012 0.279513 -0.113469)
(-0.565012 0.279513 -0.113469)
(-0.560012 0.278322 -0.139249)
(-0.565012 0.278322 -0.139249)
(-0.560012 0.274756 -0.164809)
(-0.565012 0.274756 -0.164809)
(-0.560012 0.268847 -0.189931)
(-0.565012 0.268847 -0.189931)
(-0.560012 0.260646 -0.2144)
(-0.565012 0.260646 -0.2144)
(-0.560012 0.250222 -0.238009)
(-0.565012 0.250222 -0.238009)
(-0.560012 0.237664 -0.260554)
(-0.565012 0.237664 -0.260554)
(-0.560012 0.223079 -0.281846)
(-0.565012 0.223079 -0.281846)
(-0.560012 0.206593 -0.3017)
(-0.565012 0.206593 -0.3017)
(-0.560012 0.188344 -0.319948)
(-0.565012 0.188344 -0.319948)
(-0.560012 0.16849 -0.336435)
(-0.565012 0.16849 -0.336435)
(-0.560012 0.147199 -0.35102)
(-0.565012 0.147199 -0.35102)
(-0.560012 0.124653 -0.363578)
(-0.565012 0.124653 -0.363578)
(-0.560012 0.101044 -0.374002)
(-0.565012 0.101044 -0.374002)
(-0.560012 0.0765748 -0.382203)
(-0.565012 0.0765748 -0.382203)
(-0.560012 0.051453 -0.388112)
(-0.565012 0.051453 -0.388112)
(-0.560012 0.0258932 -0.391677)
(-0.565012 0.0258932 -0.391677)
)


// edges:

72
(
(0 1)
(1 4)
(5 0)
(4 6)
(7 5)
(6 8)
(9 7)
(8 10)
(11 9)
(10 12)
(13 11)
(12 14)
(15 13)
(14 16)
(17 15)
(16 18)
(19 17)
(18 20)
(21 19)
(20 22)
(23 21)
(22 24)
(25 23)
(24 26)
(27 25)
(26 28)
(29 27)
(28 30)
(31 29)
(30 32)
(33 31)
(32 34)
(35 33)
(34 36)
(37 35)
(36 38)
(39 37)
(38 40)
(41 39)
(40 42)
(43 41)
(42 44)
(45 43)
(44 46)
(47 45)
(46 48)
(49 47)
(48 50)
(51 49)
(50 52)
(53 51)
(52 54)
(55 53)
(54 56)
(57 55)
(56 58)
(59 57)
(58 60)
(61 59)
(60 62)
(63 61)
(62 64)
(65 63)
(64 66)
(67 65)
(66 68)
(69 67)
(68 2)
(2 3)
(3 69)
(0 3)
(2 1)
)

// * * * * * * * * * * * * * * * * * * * * * * * * * * * * * * * * * * * * * //


// ************************************************************************* //
