/*--------------------------------*- C++ -*----------------------------------*\
| =========                 |                                                 |
| \\      /  F ield         | OpenFOAM: The Open Source CFD Toolbox           |
|  \\    /   O peration     | Version:  5.x                                   |
|   \\  /    A nd           | Web:      www.OpenFOAM.org                      |
|    \\/     M anipulation  |                                                 |
\*---------------------------------------------------------------------------*/
/*   Windows 32 and 64 bit porting by blueCAPE: http://www.bluecape.com.pt   *\
|  Based on Windows porting (2.0.x v4) by Symscape: http://www.symscape.com   |
\*---------------------------------------------------------------------------*/
FoamFile
{
    version     2.0;
    format      ascii;
    class       featureEdgeMesh;
    location    "constant/triSurface";
    object      NEMO4_Engine.eMesh;
}
// * * * * * * * * * * * * * * * * * * * * * * * * * * * * * * * * * * * * * //


// points:

164
(
(-0.500012 1.88153e-009 -0.15645)
(-0.500012 0.128213 -0.15645)
(-0.392012 1.88153e-009 -0.15645)
(-0.392012 0.128213 -0.15645)
(-0.392012 0.0832134 -0.030489)
(-0.392012 1.88153e-009 -0.030489)
(-0.392012 0.128213 -0.070489)
(-0.500012 1.88153e-009 -0.030489)
(-0.500012 0.0832134 -0.030489)
(-0.500012 0.128213 -0.070489)
(-0.417023 1.88153e-009 -0.00146932)
(-0.48702 1.88153e-009 -0.00146932)
(-0.560012 1.88153e-009 -0.0734695)
(-0.560012 1.88153e-009 -0.153469)
(-0.392012 0.0832134 -0.070489)
(-0.500012 1.88153e-009 -0.0734695)
(-0.500012 0.0832134 -0.070489)
(-0.500012 1.88153e-009 -0.153469)
(-0.48702 1.88153e-009 -0.030489)
(-0.417023 1.88153e-009 -0.030489)
(-0.4176 0.00604018 -0.00146932)
(-0.419212 0.0118898 -0.00146932)
(-0.421811 0.0173731 -0.00146932)
(-0.425317 0.0223252 -0.00146932)
(-0.429626 0.0265974 -0.00146932)
(-0.434608 0.0300611 -0.00146932)
(-0.440113 0.0326124 -0.00146932)
(-0.445976 0.0341745 -0.00146932)
(-0.452021 0.0347004 -0.00146932)
(-0.458066 0.0341745 -0.00146932)
(-0.463929 0.0326124 -0.00146932)
(-0.469435 0.0300611 -0.00146932)
(-0.474417 0.0265974 -0.00146932)
(-0.478726 0.0223252 -0.00146932)
(-0.482232 0.0173731 -0.00146932)
(-0.48483 0.0118898 -0.00146932)
(-0.486442 0.00604018 -0.00146932)
(-0.560012 0.00626996 -0.0739459)
(-0.560012 0.0123878 -0.0753991)
(-0.560012 0.0182023 -0.0777931)
(-0.560012 0.0235697 -0.0810687)
(-0.560012 0.0283576 -0.085145)
(-0.560012 0.0324474 -0.0899212)
(-0.560012 0.0357382 -0.0952794)
(-0.560012 0.0381486 -0.101087)
(-0.560012 0.0396192 -0.107201)
(-0.560012 0.0401134 -0.113469)
(-0.560012 0.0396192 -0.119738)
(-0.560012 0.0381486 -0.125852)
(-0.560012 0.0357382 -0.131659)
(-0.560012 0.0324474 -0.137017)
(-0.560012 0.0283576 -0.141794)
(-0.560012 0.0235697 -0.14587)
(-0.560012 0.0182023 -0.149146)
(-0.560012 0.0123878 -0.15154)
(-0.560012 0.00626996 -0.152993)
(-0.41865 0.0659117 0.0265307)
(-0.418921 0.0649015 0.0265307)
(-0.419012 0.0638596 0.0265307)
(-0.418921 0.0628177 0.0265307)
(-0.416869 0.0684559 0.0265307)
(-0.417608 0.0677163 0.0265307)
(-0.418208 0.0668596 0.0265307)
(-0.414054 0.0697685 0.0265307)
(-0.415064 0.0694978 0.0265307)
(-0.416012 0.0690558 0.0265307)
(-0.41096 0.0694978 0.0265307)
(-0.41197 0.0697685 0.0265307)
(-0.413012 0.0698596 0.0265307)
(-0.408416 0.0677163 0.0265307)
(-0.409155 0.0684559 0.0265307)
(-0.410012 0.0690558 0.0265307)
(-0.407103 0.0649015 0.0265307)
(-0.407374 0.0659117 0.0265307)
(-0.407816 0.0668596 0.0265307)
(-0.407374 0.0618075 0.0265307)
(-0.407103 0.0628177 0.0265307)
(-0.407012 0.0638596 0.0265307)
(-0.409155 0.0592633 0.0265307)
(-0.408416 0.0600029 0.0265307)
(-0.407816 0.0608596 0.0265307)
(-0.41197 0.0579508 0.0265307)
(-0.41096 0.0582214 0.0265307)
(-0.410012 0.0586635 0.0265307)
(-0.415064 0.0582214 0.0265307)
(-0.414054 0.0579508 0.0265307)
(-0.413012 0.0578596 0.0265307)
(-0.417608 0.0600029 0.0265307)
(-0.416869 0.0592633 0.0265307)
(-0.416012 0.0586635 0.0265307)
(-0.41865 0.0618075 0.0265307)
(-0.418208 0.0608596 0.0265307)
(-0.500012 0.00626996 -0.0739459)
(-0.500012 0.0401134 -0.113469)
(-0.500012 0.0396192 -0.107201)
(-0.500012 0.0123878 -0.15154)
(-0.500012 0.0182023 -0.149146)
(-0.500012 0.0235697 -0.14587)
(-0.500012 0.0283576 -0.141794)
(-0.500012 0.0324474 -0.137017)
(-0.500012 0.0357382 -0.131659)
(-0.500012 0.0381486 -0.125852)
(-0.500012 0.0381486 -0.101087)
(-0.500012 0.0357382 -0.0952794)
(-0.500012 0.0324474 -0.0899212)
(-0.500012 0.0283576 -0.085145)
(-0.500012 0.00626996 -0.152993)
(-0.500012 0.0396192 -0.119738)
(-0.500012 0.0235697 -0.0810687)
(-0.500012 0.0182023 -0.0777931)
(-0.500012 0.0123878 -0.0753991)
(-0.41865 0.0659117 -0.030489)
(-0.418208 0.0668596 -0.030489)
(-0.41197 0.0697685 -0.030489)
(-0.41096 0.0694978 -0.030489)
(-0.410012 0.0690558 -0.030489)
(-0.407816 0.0668596 -0.030489)
(-0.407374 0.0659117 -0.030489)
(-0.407103 0.0649015 -0.030489)
(-0.417608 0.0677163 -0.030489)
(-0.416869 0.0684559 -0.030489)
(-0.416012 0.0690558 -0.030489)
(-0.409155 0.0684559 -0.030489)
(-0.408416 0.0677163 -0.030489)
(-0.407012 0.0638596 -0.030489)
(-0.407103 0.0628177 -0.030489)
(-0.407374 0.0618075 -0.030489)
(-0.407816 0.0608596 -0.030489)
(-0.486442 0.00604018 -0.030489)
(-0.408416 0.0600029 -0.030489)
(-0.409155 0.0592633 -0.030489)
(-0.410012 0.0586635 -0.030489)
(-0.48483 0.0118898 -0.030489)
(-0.482232 0.0173731 -0.030489)
(-0.415064 0.0694978 -0.030489)
(-0.414054 0.0697685 -0.030489)
(-0.413012 0.0698596 -0.030489)
(-0.418208 0.0608596 -0.030489)
(-0.41865 0.0618075 -0.030489)
(-0.469435 0.0300611 -0.030489)
(-0.463929 0.0326124 -0.030489)
(-0.478726 0.0223252 -0.030489)
(-0.474417 0.0265974 -0.030489)
(-0.418921 0.0628177 -0.030489)
(-0.419012 0.0638596 -0.030489)
(-0.418921 0.0649015 -0.030489)
(-0.414054 0.0579508 -0.030489)
(-0.415064 0.0582214 -0.030489)
(-0.425317 0.0223252 -0.030489)
(-0.421811 0.0173731 -0.030489)
(-0.413012 0.0578596 -0.030489)
(-0.419212 0.0118898 -0.030489)
(-0.41096 0.0582214 -0.030489)
(-0.41197 0.0579508 -0.030489)
(-0.4176 0.00604018 -0.030489)
(-0.458066 0.0341745 -0.030489)
(-0.452021 0.0347004 -0.030489)
(-0.417608 0.0600029 -0.030489)
(-0.445976 0.0341745 -0.030489)
(-0.416869 0.0592633 -0.030489)
(-0.440113 0.0326124 -0.030489)
(-0.416012 0.0586635 -0.030489)
(-0.434608 0.0300611 -0.030489)
(-0.429626 0.0265974 -0.030489)
)


// edges:

174
(
(0 1)
(2 0)
(3 2)
(1 3)
(4 5)
(14 4)
(5 2)
(6 14)
(3 6)
(15 7)
(8 16)
(0 17)
(16 9)
(9 1)
(7 8)
(7 18)
(4 8)
(19 5)
(10 19)
(20 10)
(21 20)
(22 21)
(23 22)
(24 23)
(25 24)
(26 25)
(27 26)
(28 27)
(29 28)
(30 29)
(31 30)
(32 31)
(33 32)
(34 33)
(35 34)
(36 35)
(11 36)
(18 11)
(11 10)
(12 15)
(37 12)
(38 37)
(39 38)
(40 39)
(41 40)
(42 41)
(43 42)
(44 43)
(45 44)
(46 45)
(47 46)
(48 47)
(49 48)
(50 49)
(51 50)
(52 51)
(53 52)
(54 53)
(55 54)
(13 55)
(17 13)
(13 12)
(6 9)
(56 57)
(57 58)
(58 59)
(60 61)
(61 62)
(62 56)
(63 64)
(64 65)
(65 60)
(66 67)
(67 68)
(68 63)
(69 70)
(70 71)
(71 66)
(72 73)
(73 74)
(74 69)
(75 76)
(76 77)
(77 72)
(78 79)
(79 80)
(80 75)
(81 82)
(82 83)
(83 78)
(84 85)
(85 86)
(86 81)
(87 88)
(88 89)
(89 84)
(59 90)
(90 91)
(91 87)
(92 15)
(93 94)
(95 96)
(96 97)
(97 98)
(98 99)
(99 100)
(100 101)
(94 102)
(102 103)
(103 104)
(104 105)
(106 95)
(17 106)
(107 93)
(101 107)
(105 108)
(108 109)
(109 110)
(110 92)
(111 112)
(113 114)
(114 115)
(116 117)
(117 118)
(112 119)
(119 120)
(120 121)
(115 122)
(122 123)
(123 116)
(118 124)
(124 125)
(125 126)
(126 127)
(18 128)
(127 129)
(129 130)
(130 131)
(128 132)
(132 133)
(121 134)
(134 135)
(135 136)
(136 113)
(137 138)
(139 140)
(133 141)
(141 142)
(142 139)
(138 143)
(143 144)
(144 145)
(145 111)
(146 147)
(148 149)
(150 146)
(149 151)
(131 152)
(152 153)
(153 150)
(154 19)
(151 154)
(140 155)
(155 156)
(157 137)
(156 158)
(159 157)
(158 160)
(161 159)
(160 162)
(147 161)
(162 163)
(163 148)
(16 14)
)

// * * * * * * * * * * * * * * * * * * * * * * * * * * * * * * * * * * * * * //


// ************************************************************************* //
