/*--------------------------------*- C++ -*----------------------------------*\
| =========                 |                                                 |
| \\      /  F ield         | OpenFOAM: The Open Source CFD Toolbox           |
|  \\    /   O peration     | Version:  5.x                                   |
|   \\  /    A nd           | Web:      www.OpenFOAM.org                      |
|    \\/     M anipulation  |                                                 |
\*---------------------------------------------------------------------------*/
/*   Windows 32 and 64 bit porting by blueCAPE: http://www.bluecape.com.pt   *\
|  Based on Windows porting (2.0.x v4) by Symscape: http://www.symscape.com   |
\*---------------------------------------------------------------------------*/
FoamFile
{
    version     2.0;
    format      ascii;
    class       featureEdgeMesh;
    location    "constant/triSurface";
    object      NEMO4_FrontQuadProp.eMesh;
}
// * * * * * * * * * * * * * * * * * * * * * * * * * * * * * * * * * * * * * //


// points:

256
(
(-0.681172 0.719446 -0.00580992)
(-0.683208 0.717415 -0.0057437)
(-0.684859 0.715062 -0.00565303)
(-0.686077 0.712459 -0.00554066)
(-0.686824 0.709684 -0.00541001)
(-0.686275 0.712982 0.00444368)
(-0.685057 0.715585 0.00433131)
(-0.687022 0.710208 0.00457433)
(-0.683405 0.717938 0.00424064)
(-0.681369 0.719969 0.00417442)
(-0.679012 0.721616 0.00413467)
(-0.676405 0.72283 0.00412259)
(-0.673626 0.723574 0.00413856)
(-0.670762 0.723824 0.00418208)
(-0.667897 0.723574 0.00425183)
(-0.66512 0.72283 0.00434569)
(-0.662516 0.721616 0.00446082)
(-0.660162 0.719969 0.00459371)
(-0.65813 0.717938 0.00474033)
(-0.656483 0.715585 0.00489622)
(-0.655271 0.712982 0.00505664)
(-0.65453 0.710208 0.00521672)
(-0.654332 0.709684 -0.00476762)
(-0.655074 0.712459 -0.00492771)
(-0.656286 0.715062 -0.00508813)
(-0.657933 0.717415 -0.00524401)
(-0.659964 0.719446 -0.00539063)
(-0.662318 0.721093 -0.00552352)
(-0.664923 0.722307 -0.00563865)
(-0.6677 0.72305 -0.00573252)
(-0.670564 0.723301 -0.00580227)
(-0.673429 0.72305 -0.00584579)
(-0.676207 0.722307 -0.00586175)
(-0.678815 0.721093 -0.00584967)
(-0.686286 0.701711 0.00503426)
(-0.687028 0.704485 0.00487418)
(-0.68683 0.703962 -0.00511016)
(-0.686089 0.701188 -0.00495008)
(-0.684876 0.698584 -0.00478966)
(-0.68323 0.696232 -0.00463377)
(-0.681198 0.694201 -0.00448715)
(-0.678845 0.692553 -0.00435426)
(-0.67624 0.691339 -0.00423914)
(-0.673463 0.690596 -0.00414527)
(-0.670598 0.690346 -0.00407552)
(-0.667733 0.690596 -0.004032)
(-0.664955 0.691339 -0.00401604)
(-0.662348 0.692553 -0.00402811)
(-0.65999 0.694201 -0.00406787)
(-0.657955 0.696232 -0.00413408)
(-0.656303 0.698584 -0.00422475)
(-0.655085 0.701188 -0.00433712)
(-0.654338 0.703962 -0.00446778)
(-0.655283 0.701711 0.00564722)
(-0.656501 0.699108 0.00575959)
(-0.654535 0.704485 0.00551657)
(-0.658152 0.696755 0.00585026)
(-0.660188 0.694724 0.00591648)
(-0.662545 0.693077 0.00595623)
(-0.665152 0.691863 0.00596831)
(-0.667931 0.691119 0.00595234)
(-0.670796 0.690869 0.00590883)
(-0.67366 0.691119 0.00583907)
(-0.676437 0.691863 0.00574521)
(-0.679042 0.693077 0.00563008)
(-0.681396 0.694724 0.00549719)
(-0.683427 0.696755 0.00535057)
(-0.685074 0.699108 0.00519468)
(-0.654085 0.706823 -0.00461274)
(-0.654282 0.707347 0.0053716)
(-0.687078 0.706823 -0.00526504)
(-0.687275 0.707347 0.0047193)
(-0.686721 0.352432 0.0172665)
(-0.68672 0.352432 0.0172615)
(-0.655332 0.352432 0.0178821)
(-0.655332 0.352432 0.0178871)
(-0.685604 0.353726 0.019722)
(-0.685145 0.354207 0.0200322)
(-0.684634 0.354734 0.0202553)
(-0.685999 0.353303 0.0193339)
(-0.686167 0.353119 0.0191142)
(-0.686316 0.352953 0.0188797)
(-0.686442 0.352809 0.0186321)
(-0.686546 0.352687 0.0183733)
(-0.686626 0.352587 0.0181053)
(-0.686682 0.352511 0.0178301)
(-0.686714 0.352459 0.0175498)
(-0.65535 0.352459 0.0181699)
(-0.655393 0.352511 0.0184487)
(-0.65546 0.352587 0.0187215)
(-0.655551 0.352687 0.0189861)
(-0.656135 0.353303 0.0199243)
(-0.655958 0.353119 0.0197115)
(-0.655801 0.352953 0.019483)
(-0.655665 0.352809 0.0192406)
(-0.657016 0.354207 0.0205884)
(-0.656545 0.353726 0.0202965)
(-0.657535 0.354734 0.020791)
(-0.686668 0.352447 0.0167512)
(-0.686705 0.352428 0.0170058)
(-0.68666 0.352452 0.0166947)
(-0.686608 0.352487 0.0164709)
(-0.686537 0.352542 0.0162515)
(-0.686502 0.35257 0.0161419)
(-0.685908 0.353092 0.0151507)
(-0.686059 0.352953 0.0153281)
(-0.686251 0.352782 0.0156198)
(-0.686336 0.352709 0.0157722)
(-0.685029 0.353917 0.0143971)
(-0.685323 0.353636 0.0145845)
(-0.685499 0.353471 0.0147375)
(-0.685719 0.353265 0.0149289)
(-0.684882 0.354057 0.0143034)
(-0.684511 0.354416 0.0141394)
(-0.684405 0.354519 0.0140926)
(-0.656446 0.353464 0.0153047)
(-0.656629 0.353643 0.0151612)
(-0.656905 0.353912 0.0149457)
(-0.657057 0.354062 0.0148627)
(-0.657414 0.354413 0.0146688)
(-0.656249 0.353274 0.0155198)
(-0.656053 0.353084 0.0157349)
(-0.655916 0.352953 0.015924)
(-0.655736 0.352782 0.0162231)
(-0.655658 0.352709 0.0163788)
(-0.655507 0.35257 0.0167546)
(-0.655472 0.352538 0.0168647)
(-0.655413 0.352487 0.0170877)
(-0.655372 0.352454 0.0173135)
(-0.655337 0.352428 0.017626)
(-0.655362 0.352445 0.01737)
(-0.683217 0.717448 -0.00505037)
(-0.683018 0.717686 -0.00507635)
(-0.684649 0.715488 -0.0045356)
(-0.684138 0.716268 -0.00482723)
(-0.683586 0.717004 -0.0050022)
(-0.686129 0.712618 -0.0027238)
(-0.68601 0.712904 -0.00300794)
(-0.685878 0.71321 -0.00326566)
(-0.685542 0.713925 -0.00376273)
(-0.685114 0.714707 -0.00417781)
(-0.684884 0.715128 -0.00440088)
(-0.685212 0.714967 0.000774287)
(-0.685625 0.714145 0.000426678)
(-0.685942 0.713381 -5.77379e-006)
(-0.686065 0.71305 -0.000234629)
(-0.686172 0.712736 -0.000492589)
(-0.686177 0.712723 -0.000503797)
(-0.683713 0.717341 0.00141369)
(-0.684259 0.716589 0.00129497)
(-0.684759 0.715782 0.00106659)
(-0.68499 0.715409 0.00096109)
(-0.681314 0.719823 0.00138061)
(-0.683147 0.718028 0.00143844)
(-0.683345 0.717787 0.00142977)
(-0.678957 0.72147 0.00134086)
(-0.67635 0.722684 0.00132878)
(-0.673571 0.723427 0.00134475)
(-0.670706 0.723678 0.00138827)
(-0.667842 0.723427 0.00145802)
(-0.665065 0.722684 0.00155188)
(-0.66246 0.72147 0.00166701)
(-0.660106 0.719823 0.0017999)
(-0.658278 0.718028 0.00193012)
(-0.658079 0.717787 0.00192929)
(-0.656652 0.715782 0.00162229)
(-0.65716 0.716589 0.00183073)
(-0.657711 0.717341 0.00192775)
(-0.655178 0.712735 0.000120461)
(-0.655295 0.713049 0.000373215)
(-0.655427 0.713381 0.000597519)
(-0.655762 0.714145 0.00101709)
(-0.656188 0.714967 0.00134811)
(-0.656417 0.715409 0.001526)
(-0.655679 0.713925 -0.00317232)
(-0.655363 0.71321 -0.00266237)
(-0.655241 0.712904 -0.00240017)
(-0.655134 0.712619 -0.00211086)
(-0.657584 0.717004 -0.00448814)
(-0.657039 0.716268 -0.00429147)
(-0.656541 0.715488 -0.00397991)
(-0.656311 0.715128 -0.00383597)
(-0.65609 0.714707 -0.00360399)
(-0.659978 0.719481 -0.00471489)
(-0.658149 0.717686 -0.00458466)
(-0.657951 0.717448 -0.00455084)
(-0.662332 0.721128 -0.00484778)
(-0.664936 0.722342 -0.0049629)
(-0.667713 0.723086 -0.00505677)
(-0.670578 0.723336 -0.00512652)
(-0.673442 0.723086 -0.00517004)
(-0.676221 0.722342 -0.005186)
(-0.678828 0.721128 -0.00517393)
(-0.681185 0.719481 -0.00513418)
(-0.685556 0.699914 -0.00302859)
(-0.685891 0.700678 -0.00260903)
(-0.686022 0.701009 -0.0023852)
(-0.68614 0.701322 -0.00213168)
(-0.683607 0.696718 -0.00393926)
(-0.684158 0.69747 -0.00384224)
(-0.684666 0.698277 -0.0036338)
(-0.684901 0.69865 -0.0035375)
(-0.68513 0.699092 -0.00335961)
(-0.681212 0.694236 -0.00381141)
(-0.683041 0.696031 -0.00394163)
(-0.683239 0.696271 -0.0039408)
(-0.678858 0.692589 -0.00367852)
(-0.676253 0.691375 -0.00356339)
(-0.673476 0.690632 -0.00346952)
(-0.670612 0.690381 -0.00339977)
(-0.667747 0.690632 -0.00335625)
(-0.664968 0.691375 -0.00334029)
(-0.662361 0.692589 -0.00335237)
(-0.660004 0.694236 -0.00339212)
(-0.658171 0.696031 -0.00344995)
(-0.657973 0.696271 -0.00344128)
(-0.656559 0.698277 -0.0030781)
(-0.657059 0.69747 -0.00330647)
(-0.657605 0.696718 -0.00342519)
(-0.655145 0.701323 -0.00151918)
(-0.655253 0.70101 -0.00177639)
(-0.655376 0.700678 -0.00200573)
(-0.655693 0.699914 -0.00243819)
(-0.656106 0.699092 -0.00278579)
(-0.656328 0.69865 -0.0029726)
(-0.656204 0.699351 0.00216631)
(-0.655776 0.700134 0.00175122)
(-0.65544 0.700849 0.00125416)
(-0.655308 0.701154 0.000996979)
(-0.65519 0.701439 0.000712122)
(-0.657732 0.697054 0.00299069)
(-0.65718 0.697791 0.00281572)
(-0.65667 0.698571 0.00252409)
(-0.656434 0.698931 0.00238937)
(-0.660133 0.694578 0.00312267)
(-0.6583 0.696372 0.00306484)
(-0.658101 0.696611 0.00303886)
(-0.66249 0.69293 0.00316242)
(-0.665097 0.691716 0.0031745)
(-0.667876 0.690973 0.00315853)
(-0.67074 0.690723 0.00311501)
(-0.673605 0.690973 0.00304526)
(-0.676382 0.691716 0.0029514)
(-0.678987 0.69293 0.00283627)
(-0.681341 0.694578 0.00270338)
(-0.683169 0.696372 0.00257316)
(-0.683367 0.696611 0.00253934)
(-0.684777 0.698571 0.0019684)
(-0.684279 0.697791 0.00227996)
(-0.683734 0.697054 0.00247663)
(-0.686185 0.70144 9.95059e-005)
(-0.686077 0.701155 0.000388107)
(-0.685955 0.700849 0.000650863)
(-0.685639 0.700134 0.00116082)
(-0.685228 0.699351 0.00159249)
(-0.685007 0.698931 0.00182446)
)


// edges:

250
(
(0 1)
(1 2)
(2 3)
(3 4)
(5 6)
(7 5)
(6 8)
(8 9)
(9 10)
(10 11)
(11 12)
(12 13)
(13 14)
(14 15)
(15 16)
(16 17)
(17 18)
(18 19)
(19 20)
(20 21)
(22 23)
(24 25)
(23 24)
(25 26)
(26 27)
(27 28)
(28 29)
(29 30)
(30 31)
(31 32)
(32 33)
(33 0)
(34 35)
(36 37)
(38 39)
(37 38)
(39 40)
(40 41)
(41 42)
(42 43)
(43 44)
(44 45)
(45 46)
(46 47)
(47 48)
(48 49)
(49 50)
(50 51)
(51 52)
(53 54)
(55 53)
(54 56)
(56 57)
(57 58)
(58 59)
(59 60)
(60 61)
(61 62)
(62 63)
(63 64)
(64 65)
(65 66)
(66 67)
(67 34)
(52 68)
(69 55)
(68 22)
(21 69)
(4 70)
(71 7)
(70 36)
(35 71)
(72 73)
(74 75)
(76 77)
(77 78)
(79 76)
(80 79)
(81 80)
(82 81)
(83 82)
(84 83)
(85 84)
(72 86)
(86 85)
(87 75)
(88 87)
(89 88)
(90 89)
(91 92)
(92 93)
(93 94)
(94 90)
(95 96)
(96 91)
(97 95)
(98 99)
(99 73)
(100 98)
(101 100)
(102 101)
(103 102)
(104 105)
(105 106)
(106 107)
(107 103)
(108 109)
(109 110)
(110 111)
(111 104)
(112 108)
(113 112)
(114 113)
(115 116)
(116 117)
(117 118)
(118 119)
(120 115)
(121 120)
(122 121)
(123 122)
(124 123)
(125 124)
(126 125)
(127 126)
(128 127)
(74 129)
(129 130)
(130 128)
(131 132)
(133 134)
(134 135)
(135 131)
(136 137)
(137 138)
(138 139)
(139 140)
(140 141)
(141 133)
(142 143)
(143 144)
(144 145)
(145 146)
(146 147)
(148 149)
(149 150)
(150 151)
(151 142)
(152 153)
(153 154)
(154 148)
(155 152)
(156 155)
(157 156)
(158 157)
(159 158)
(160 159)
(161 160)
(162 161)
(163 162)
(164 163)
(165 166)
(166 167)
(167 164)
(168 169)
(169 170)
(170 171)
(171 172)
(172 173)
(173 165)
(174 175)
(175 176)
(176 177)
(178 179)
(179 180)
(180 181)
(181 182)
(182 174)
(183 184)
(184 185)
(185 178)
(186 183)
(187 186)
(188 187)
(189 188)
(190 189)
(191 190)
(192 191)
(193 192)
(132 193)
(194 195)
(195 196)
(196 197)
(198 199)
(199 200)
(200 201)
(201 202)
(202 194)
(203 204)
(204 205)
(205 198)
(206 203)
(207 206)
(208 207)
(209 208)
(210 209)
(211 210)
(212 211)
(213 212)
(214 213)
(215 214)
(216 217)
(217 218)
(218 215)
(219 220)
(220 221)
(221 222)
(222 223)
(223 224)
(224 216)
(225 226)
(226 227)
(227 228)
(228 229)
(230 231)
(231 232)
(232 233)
(233 225)
(234 235)
(235 236)
(236 230)
(237 234)
(238 237)
(239 238)
(240 239)
(241 240)
(242 241)
(243 242)
(244 243)
(245 244)
(246 245)
(247 248)
(248 249)
(249 246)
(250 251)
(251 252)
(252 253)
(253 254)
(254 255)
(255 247)
)

// * * * * * * * * * * * * * * * * * * * * * * * * * * * * * * * * * * * * * //


// ************************************************************************* //
