/*--------------------------------*- C++ -*----------------------------------*\
| =========                 |                                                 |
| \\      /  F ield         | OpenFOAM: The Open Source CFD Toolbox           |
|  \\    /   O peration     | Version:  5.x                                   |
|   \\  /    A nd           | Web:      www.OpenFOAM.org                      |
|    \\/     M anipulation  |                                                 |
\*---------------------------------------------------------------------------*/
/*   Windows 32 and 64 bit porting by blueCAPE: http://www.bluecape.com.pt   *\
|  Based on Windows porting (2.0.x v4) by Symscape: http://www.symscape.com   |
\*---------------------------------------------------------------------------*/
FoamFile
{
    version     2.0;
    format      ascii;
    class       featureEdgeMesh;
    location    "constant/triSurface";
    object      NEMO4_Boom.eMesh;
}
// * * * * * * * * * * * * * * * * * * * * * * * * * * * * * * * * * * * * * //


// points:

588
(
(-0.574225 0.730038 -0.0473182)
(-0.573725 0.677642 -0.0726057)
(-0.573672 0.728572 -0.0752743)
(-0.574278 0.679108 -0.0446496)
(0.780011 0.677642 -0.0458417)
(0.779458 0.679108 -0.0178856)
(0.780063 0.728572 -0.0485104)
(0.779511 0.730038 -0.0205542)
(-0.306656 0.68384 -0.0734306)
(-0.306656 0.72384 -0.0734306)
(0.00328313 0.68384 -0.067303)
(0.00328313 0.72384 -0.067303)
(-0.307398 0.68384 -0.0359379)
(0.00254188 0.68384 -0.0298103)
(-0.307398 0.72384 -0.0359379)
(0.00254188 0.72384 -0.0298103)
(-0.298169 0.72384 -0.123273)
(-0.298169 0.68384 -0.123273)
(-0.299158 0.72384 -0.0732824)
(-0.299158 0.68384 -0.0732824)
(-0.158197 0.72384 -0.120505)
(-0.159185 0.72384 -0.070515)
(-0.158197 0.68384 -0.120505)
(-0.159185 0.68384 -0.070515)
(-0.1432 0.72384 -0.120209)
(-0.1432 0.68384 -0.120209)
(-0.144188 0.72384 -0.0702185)
(-0.144188 0.68384 -0.0702185)
(-0.00322707 0.72384 -0.117441)
(-0.0042154 0.72384 -0.0674512)
(-0.00322707 0.68384 -0.117441)
(-0.0042154 0.68384 -0.0674512)
(-0.573688 0.713593 -0.0744894)
(-0.573709 0.692622 -0.0733906)
(-0.574262 0.694087 -0.0454344)
(-0.57424 0.715058 -0.0465333)
(-0.629639 0.730038 -0.0484137)
(-0.629086 0.728572 -0.0763699)
(-0.629139 0.677642 -0.0737013)
(-0.629692 0.679108 -0.0457451)
(-0.622231 0.715058 -0.0474821)
(-0.622253 0.694087 -0.0463832)
(-0.6217 0.692622 -0.0743394)
(-0.621678 0.713593 -0.0754383)
(0.779473 0.694087 -0.0186705)
(0.779495 0.715058 -0.0197693)
(0.780026 0.692622 -0.0466266)
(0.780048 0.713593 -0.0477255)
(0.834925 0.730038 -0.0194586)
(0.835478 0.728572 -0.0474148)
(0.834872 0.679108 -0.01679)
(0.835425 0.677642 -0.0447462)
(0.827486 0.715058 -0.0188205)
(0.827464 0.694087 -0.0177217)
(0.828039 0.713593 -0.0467767)
(0.828017 0.692622 -0.0456778)
(-0.57366 0.71114 -0.0758638)
(-0.573641 0.708498 -0.0768275)
(-0.573631 0.705735 -0.0773556)
(-0.573629 0.702924 -0.0774345)
(-0.573637 0.700137 -0.0770623)
(-0.573653 0.697445 -0.0762483)
(-0.573677 0.694918 -0.0750138)
(-0.574289 0.69654 -0.0440601)
(-0.574308 0.699183 -0.0430964)
(-0.574319 0.701945 -0.0425683)
(-0.57432 0.704756 -0.0424893)
(-0.574313 0.707543 -0.0428616)
(-0.574297 0.710235 -0.0436755)
(-0.574272 0.712762 -0.0449101)
(-0.634023 0.735034 -0.0768062)
(-0.634576 0.7365 -0.0488501)
(-0.639994 0.740558 -0.0772138)
(-0.640547 0.742023 -0.0492576)
(-0.646823 0.74498 -0.0775806)
(-0.647375 0.746446 -0.0496245)
(-0.654308 0.748172 -0.0778959)
(-0.654861 0.749637 -0.0499398)
(-0.662231 0.750039 -0.0781504)
(-0.662784 0.751504 -0.0501943)
(-0.670358 0.750526 -0.0783366)
(-0.670911 0.751992 -0.0503805)
(-0.678451 0.74962 -0.0784491)
(-0.679003 0.751085 -0.050493)
(-0.686271 0.747346 -0.0784846)
(-0.686823 0.748812 -0.0505284)
(-0.693588 0.743772 -0.0784419)
(-0.694141 0.745238 -0.0504857)
(-0.700188 0.739003 -0.0783224)
(-0.700741 0.740468 -0.0503662)
(-0.705877 0.733178 -0.0781295)
(-0.70643 0.734644 -0.0501734)
(-0.710487 0.72647 -0.077869)
(-0.711039 0.727935 -0.0499129)
(-0.713883 0.719075 -0.0775485)
(-0.714435 0.72054 -0.0495923)
(-0.715964 0.71121 -0.0771774)
(-0.716517 0.712676 -0.0492213)
(-0.716671 0.703107 -0.0767666)
(-0.717223 0.704573 -0.0488105)
(-0.715981 0.695005 -0.0763283)
(-0.716534 0.69647 -0.0483721)
(-0.713916 0.68714 -0.0758752)
(-0.714468 0.688605 -0.047919)
(-0.710535 0.679745 -0.0754207)
(-0.711088 0.68121 -0.0474646)
(-0.705939 0.673036 -0.0749782)
(-0.706492 0.674502 -0.0470221)
(-0.700263 0.667212 -0.0745607)
(-0.700815 0.668677 -0.0466045)
(-0.693673 0.662442 -0.0741804)
(-0.694225 0.663908 -0.0462242)
(-0.686362 0.658868 -0.0738485)
(-0.686915 0.660334 -0.0458924)
(-0.678547 0.656595 -0.0735748)
(-0.6791 0.65806 -0.0456187)
(-0.670457 0.655688 -0.0733674)
(-0.671009 0.657154 -0.0454112)
(-0.662328 0.656176 -0.0732322)
(-0.662881 0.657641 -0.0452761)
(-0.654402 0.658043 -0.0731734)
(-0.654954 0.659508 -0.0452172)
(-0.646909 0.661234 -0.0731926)
(-0.647462 0.6627 -0.0452364)
(-0.640072 0.665657 -0.0732892)
(-0.640624 0.667122 -0.045333)
(-0.63409 0.67118 -0.0734604)
(-0.634642 0.672646 -0.0455043)
(-0.662524 0.751709 -0.0101371)
(-0.654816 0.749645 -0.00987655)
(-0.647586 0.746276 -0.00955698)
(-0.641052 0.741703 -0.00918811)
(-0.635414 0.736066 -0.00878114)
(-0.630842 0.729535 -0.00834843)
(-0.627476 0.722309 -0.00790314)
(-0.625418 0.714608 -0.00745879)
(-0.624731 0.706666 -0.00702888)
(-0.625435 0.698724 -0.00662648)
(-0.627509 0.691023 -0.00626382)
(-0.630889 0.683797 -0.00595191)
(-0.635475 0.677267 -0.00570023)
(-0.641124 0.671629 -0.00551643)
(-0.647668 0.667057 -0.00540609)
(-0.654905 0.663687 -0.00537257)
(-0.662617 0.661624 -0.00541688)
(-0.670569 0.660929 -0.00553767)
(-0.67852 0.661624 -0.00573129)
(-0.686228 0.663687 -0.00599184)
(-0.693459 0.667057 -0.0063114)
(-0.699992 0.671629 -0.00668027)
(-0.70563 0.677267 -0.00708725)
(-0.710202 0.683797 -0.00751995)
(-0.713568 0.691023 -0.00796525)
(-0.715626 0.698724 -0.0084096)
(-0.716313 0.706666 -0.0088395)
(-0.715609 0.714608 -0.0092419)
(-0.713535 0.722309 -0.00960456)
(-0.710155 0.729535 -0.00991647)
(-0.70557 0.736066 -0.0101682)
(-0.69992 0.741703 -0.010352)
(-0.693376 0.746276 -0.0104623)
(-0.686139 0.749645 -0.0104958)
(-0.678427 0.751709 -0.0104515)
(-0.670475 0.752403 -0.0103307)
(-0.6677 0.72305 -0.00573251)
(-0.664923 0.722307 -0.00563865)
(-0.662318 0.721093 -0.00552352)
(-0.659964 0.719446 -0.00539063)
(-0.657933 0.717415 -0.00524401)
(-0.656286 0.715062 -0.00508812)
(-0.655074 0.712459 -0.0049277)
(-0.654332 0.709684 -0.00476762)
(-0.654085 0.706823 -0.00461274)
(-0.654338 0.703962 -0.00446777)
(-0.655085 0.701188 -0.00433712)
(-0.656303 0.698584 -0.00422475)
(-0.657955 0.696232 -0.00413408)
(-0.65999 0.694201 -0.00406786)
(-0.662348 0.692553 -0.00402811)
(-0.664955 0.691339 -0.00401603)
(-0.667733 0.690596 -0.004032)
(-0.670598 0.690346 -0.00407552)
(-0.673463 0.690596 -0.00414527)
(-0.67624 0.691339 -0.00423913)
(-0.678845 0.692553 -0.00435426)
(-0.681198 0.694201 -0.00448715)
(-0.68323 0.696232 -0.00463377)
(-0.684876 0.698584 -0.00478966)
(-0.686089 0.701188 -0.00495008)
(-0.68683 0.703962 -0.00511016)
(-0.687078 0.706823 -0.00526504)
(-0.686824 0.709684 -0.00541001)
(-0.686077 0.712459 -0.00554066)
(-0.684859 0.715062 -0.00565303)
(-0.683208 0.717415 -0.0057437)
(-0.681172 0.719446 -0.00580992)
(-0.678815 0.721093 -0.00584967)
(-0.676207 0.722307 -0.00586175)
(-0.673429 0.72305 -0.00584578)
(-0.670564 0.723301 -0.00580226)
(-0.621651 0.71114 -0.0768126)
(-0.621632 0.708498 -0.0777763)
(-0.621621 0.705735 -0.0783044)
(-0.62162 0.702924 -0.0783833)
(-0.621627 0.700137 -0.0780111)
(-0.621643 0.697445 -0.0771971)
(-0.621668 0.694918 -0.0759626)
(-0.62228 0.69654 -0.0450089)
(-0.622299 0.699183 -0.0440452)
(-0.622309 0.701945 -0.0435171)
(-0.622311 0.704756 -0.0434381)
(-0.622303 0.707543 -0.0438104)
(-0.622287 0.710235 -0.0446244)
(-0.622263 0.712762 -0.0458589)
(0.779463 0.712762 -0.0181461)
(0.779439 0.710235 -0.0169116)
(0.779423 0.707543 -0.0160977)
(0.779415 0.704756 -0.0157254)
(0.779417 0.701945 -0.0158043)
(0.779427 0.699183 -0.0163324)
(0.780058 0.694918 -0.0482499)
(0.780083 0.697445 -0.0494844)
(0.780099 0.700137 -0.0502983)
(0.780106 0.702924 -0.0506706)
(0.780105 0.705735 -0.0505916)
(0.780094 0.708498 -0.0500635)
(0.780075 0.71114 -0.0490998)
(0.779446 0.69654 -0.0172961)
(0.840362 0.67118 -0.0443099)
(0.839809 0.672646 -0.0163537)
(0.846333 0.665657 -0.0439023)
(0.84578 0.667122 -0.0159461)
(0.853161 0.661234 -0.0435355)
(0.852609 0.6627 -0.0155793)
(0.860647 0.658043 -0.0432202)
(0.860094 0.659508 -0.015264)
(0.86857 0.656176 -0.0429657)
(0.868017 0.657641 -0.0150095)
(0.876697 0.655688 -0.0427794)
(0.876144 0.657154 -0.0148233)
(0.884789 0.656595 -0.042667)
(0.884237 0.65806 -0.0147108)
(0.892609 0.658868 -0.0426315)
(0.892057 0.660334 -0.0146754)
(0.899927 0.662442 -0.0426742)
(0.899374 0.663908 -0.014718)
(0.906527 0.667212 -0.0427937)
(0.905974 0.668677 -0.0148376)
(0.912215 0.673036 -0.0429866)
(0.911663 0.674502 -0.0150304)
(0.916825 0.679745 -0.0432471)
(0.916273 0.68121 -0.0152909)
(0.920221 0.68714 -0.0435676)
(0.919668 0.688605 -0.0156114)
(0.922303 0.695005 -0.0439387)
(0.92175 0.69647 -0.0159825)
(0.923009 0.703107 -0.0443494)
(0.922456 0.704573 -0.0163933)
(0.922319 0.71121 -0.0447878)
(0.921767 0.712676 -0.0168316)
(0.920254 0.719075 -0.0452409)
(0.919702 0.72054 -0.0172847)
(0.916874 0.72647 -0.0456953)
(0.916321 0.727935 -0.0177392)
(0.912278 0.733178 -0.0461379)
(0.911725 0.734644 -0.0181817)
(0.906601 0.739003 -0.0465554)
(0.906049 0.740468 -0.0185992)
(0.900011 0.743772 -0.0469357)
(0.899459 0.745238 -0.0189795)
(0.892701 0.747346 -0.0472676)
(0.892148 0.748812 -0.0193114)
(0.884886 0.74962 -0.0475412)
(0.884333 0.751085 -0.0195851)
(0.876795 0.750526 -0.0477487)
(0.876243 0.751992 -0.0197925)
(0.868667 0.750039 -0.0478839)
(0.868114 0.751504 -0.0199277)
(0.86074 0.748172 -0.0479427)
(0.860188 0.749637 -0.0199865)
(0.853248 0.74498 -0.0479235)
(0.852695 0.746446 -0.0199674)
(0.84641 0.740558 -0.0478269)
(0.845858 0.742023 -0.0198707)
(0.840428 0.735034 -0.0476556)
(0.839876 0.7365 -0.0196995)
(0.882174 0.751709 0.0204023)
(0.889882 0.749645 0.0206628)
(0.897113 0.746276 0.0209824)
(0.903646 0.741703 0.0213513)
(0.909284 0.736066 0.0217583)
(0.913856 0.729535 0.022191)
(0.917222 0.722309 0.0226362)
(0.91928 0.714608 0.0230806)
(0.919967 0.706666 0.0235105)
(0.919263 0.698724 0.0239129)
(0.917189 0.691023 0.0242756)
(0.913809 0.683797 0.0245875)
(0.909224 0.677267 0.0248391)
(0.903574 0.671629 0.025023)
(0.89703 0.667057 0.0251333)
(0.889793 0.663687 0.0251668)
(0.882081 0.661624 0.0251225)
(0.874129 0.660929 0.0250017)
(0.866178 0.661624 0.0248081)
(0.85847 0.663687 0.0245476)
(0.85124 0.667057 0.024228)
(0.844706 0.671629 0.0238591)
(0.839068 0.677267 0.0234521)
(0.834496 0.683797 0.0230194)
(0.83113 0.691023 0.0225741)
(0.829072 0.698724 0.0221298)
(0.828385 0.706666 0.0216999)
(0.829089 0.714608 0.0212975)
(0.831163 0.722309 0.0209348)
(0.834544 0.729535 0.0206229)
(0.839128 0.736066 0.0203712)
(0.844778 0.741703 0.0201874)
(0.851322 0.746276 0.0200771)
(0.858559 0.749645 0.0200436)
(0.866271 0.751709 0.0200879)
(0.874223 0.752403 0.0202087)
(0.876998 0.72305 0.0248069)
(0.879775 0.722307 0.0249007)
(0.88238 0.721093 0.0250159)
(0.884734 0.719446 0.0251488)
(0.886765 0.717415 0.0252954)
(0.888412 0.715062 0.0254513)
(0.889625 0.712459 0.0256117)
(0.890366 0.709684 0.0257718)
(0.890614 0.706823 0.0259266)
(0.89036 0.703962 0.0260716)
(0.889613 0.701188 0.0262023)
(0.888395 0.698584 0.0263146)
(0.886743 0.696232 0.0264053)
(0.884708 0.694201 0.0264715)
(0.88235 0.692553 0.0265113)
(0.879743 0.691339 0.0265233)
(0.876965 0.690596 0.0265074)
(0.8741 0.690346 0.0264639)
(0.871235 0.690596 0.0263941)
(0.868459 0.691339 0.0263002)
(0.865854 0.692553 0.0261851)
(0.8635 0.694201 0.0260522)
(0.861469 0.696232 0.0259056)
(0.859822 0.698584 0.0257497)
(0.858609 0.701188 0.0255893)
(0.857868 0.703962 0.0254292)
(0.85762 0.706823 0.0252743)
(0.857874 0.709684 0.0251294)
(0.858621 0.712459 0.0249987)
(0.859839 0.715062 0.0248863)
(0.861491 0.717415 0.0247957)
(0.863526 0.719446 0.0247295)
(0.865883 0.721093 0.0246897)
(0.868491 0.722307 0.0246776)
(0.871269 0.72305 0.0246936)
(0.874134 0.723301 0.0247371)
(0.828049 0.694918 -0.0473011)
(0.828073 0.697445 -0.0485356)
(0.828089 0.700137 -0.0493495)
(0.828097 0.702924 -0.0497218)
(0.828095 0.705735 -0.0496428)
(0.828085 0.708498 -0.0491147)
(0.828066 0.71114 -0.048151)
(0.827454 0.712762 -0.0171973)
(0.827429 0.710235 -0.0159628)
(0.827413 0.707543 -0.0151489)
(0.827406 0.704756 -0.0147766)
(0.827407 0.701945 -0.0148555)
(0.827418 0.699183 -0.0153836)
(0.827437 0.69654 -0.0163473)
(-0.574109 0.717205 -0.0531534)
(-0.574062 0.718185 -0.0555772)
(-0.57384 0.690475 -0.0667705)
(-0.573888 0.689495 -0.0643467)
(-0.574011 0.718728 -0.0581343)
(-0.573959 0.718819 -0.0607468)
(-0.573908 0.718456 -0.0633356)
(-0.573859 0.717648 -0.0658218)
(-0.573813 0.71642 -0.0681299)
(-0.573772 0.71481 -0.0701899)
(-0.573738 0.712867 -0.0719391)
(-0.573711 0.71065 -0.0733244)
(-0.573691 0.708226 -0.0743037)
(-0.573681 0.705668 -0.0748472)
(-0.573679 0.703055 -0.0749385)
(-0.573686 0.700466 -0.0745746)
(-0.573702 0.697979 -0.0737668)
(-0.573726 0.69567 -0.0725396)
(-0.573758 0.69361 -0.0709301)
(-0.573796 0.69186 -0.0689874)
(-0.574091 0.690032 -0.0541021)
(-0.574136 0.69126 -0.051794)
(-0.574177 0.69287 -0.049734)
(-0.574212 0.694813 -0.0479847)
(-0.574239 0.69703 -0.0465995)
(-0.574258 0.699454 -0.0456202)
(-0.574269 0.702012 -0.0450767)
(-0.574271 0.704625 -0.0449854)
(-0.574264 0.707214 -0.0453493)
(-0.574248 0.709701 -0.0461571)
(-0.574224 0.71201 -0.0473843)
(-0.574192 0.71407 -0.0489938)
(-0.574153 0.715819 -0.0509365)
(-0.573939 0.688952 -0.0617896)
(-0.57399 0.688861 -0.0591771)
(-0.574041 0.689224 -0.0565883)
(-0.640262 0.739609 -0.0491255)
(-0.634624 0.733972 -0.0487185)
(-0.630053 0.727441 -0.0482858)
(-0.626687 0.720216 -0.0478405)
(-0.624629 0.712515 -0.0473962)
(-0.623941 0.704573 -0.0469663)
(-0.624645 0.69663 -0.0465639)
(-0.626719 0.68893 -0.0462012)
(-0.6301 0.681704 -0.0458893)
(-0.634685 0.675173 -0.0456376)
(-0.640335 0.669536 -0.0454538)
(-0.646878 0.664963 -0.0453435)
(-0.654116 0.661594 -0.0453099)
(-0.661828 0.65953 -0.0453543)
(-0.66978 0.658835 -0.0454751)
(-0.677731 0.65953 -0.0456687)
(-0.685439 0.661594 -0.0459292)
(-0.692669 0.664963 -0.0462488)
(-0.699203 0.669536 -0.0466176)
(-0.704841 0.675173 -0.0470246)
(-0.709412 0.681704 -0.0474573)
(-0.712778 0.68893 -0.0479026)
(-0.714836 0.69663 -0.048347)
(-0.715523 0.704573 -0.0487769)
(-0.71482 0.712515 -0.0491793)
(-0.712746 0.720216 -0.0495419)
(-0.709365 0.727441 -0.0498539)
(-0.70478 0.733972 -0.0501055)
(-0.69913 0.739609 -0.0502893)
(-0.692587 0.744182 -0.0503997)
(-0.685349 0.747552 -0.0504332)
(-0.677637 0.749615 -0.0503889)
(-0.669685 0.75031 -0.0502681)
(-0.661734 0.749615 -0.0500745)
(-0.654027 0.747552 -0.0498139)
(-0.646796 0.744182 -0.0494944)
(-0.656227 0.714905 -0.00808343)
(-0.655014 0.712302 -0.007923)
(-0.657874 0.717258 -0.00823931)
(-0.659905 0.719289 -0.00838593)
(-0.662259 0.720936 -0.00851882)
(-0.664864 0.72215 -0.00863395)
(-0.667641 0.722893 -0.00872782)
(-0.670505 0.723144 -0.00879757)
(-0.67337 0.722893 -0.00884109)
(-0.676148 0.72215 -0.00885705)
(-0.678756 0.720936 -0.00884497)
(-0.681113 0.719289 -0.00880522)
(-0.683148 0.717258 -0.008739)
(-0.6848 0.714905 -0.00864833)
(-0.686018 0.712302 -0.00853596)
(-0.686765 0.709527 -0.00840531)
(-0.687019 0.706666 -0.00826034)
(-0.686771 0.703805 -0.00810546)
(-0.68603 0.701031 -0.00794538)
(-0.684817 0.698427 -0.00778496)
(-0.68317 0.696075 -0.00762907)
(-0.681139 0.694044 -0.00748245)
(-0.678785 0.692396 -0.00734956)
(-0.67618 0.691182 -0.00723444)
(-0.673404 0.690439 -0.00714057)
(-0.670539 0.690189 -0.00707082)
(-0.667674 0.690439 -0.0070273)
(-0.664896 0.691182 -0.00701134)
(-0.662288 0.692396 -0.00702341)
(-0.659931 0.694044 -0.00706316)
(-0.657896 0.696075 -0.00712938)
(-0.656244 0.698427 -0.00722005)
(-0.655026 0.701031 -0.00733242)
(-0.654279 0.703805 -0.00746308)
(-0.654025 0.706666 -0.00760804)
(-0.654273 0.709527 -0.00776292)
(0.779694 0.689224 -0.0298244)
(0.779645 0.690032 -0.0273382)
(0.779599 0.69126 -0.02503)
(0.779558 0.69287 -0.02297)
(0.779524 0.694813 -0.0212208)
(0.779496 0.69703 -0.0198355)
(0.779477 0.699454 -0.0188562)
(0.779466 0.702012 -0.0183127)
(0.779464 0.704625 -0.0182215)
(0.779472 0.707214 -0.0185853)
(0.779488 0.709701 -0.0193931)
(0.779512 0.71201 -0.0206204)
(0.779544 0.71407 -0.0222298)
(0.779582 0.715819 -0.0241725)
(0.779626 0.717205 -0.0263894)
(0.779674 0.718185 -0.0288133)
(0.779724 0.718728 -0.0313703)
(0.779776 0.718819 -0.0339829)
(0.779827 0.718456 -0.0365716)
(0.779876 0.717648 -0.0390578)
(0.779922 0.71642 -0.041366)
(0.779963 0.71481 -0.043426)
(0.779998 0.712867 -0.0451752)
(0.780025 0.71065 -0.0465605)
(0.780044 0.708226 -0.0475397)
(0.780055 0.705668 -0.0480833)
(0.780057 0.703055 -0.0481745)
(0.78005 0.700466 -0.0478107)
(0.780034 0.697979 -0.0470029)
(0.780009 0.69567 -0.0457756)
(0.779978 0.69361 -0.0441661)
(0.779939 0.69186 -0.0422234)
(0.779895 0.690475 -0.0400065)
(0.779847 0.689495 -0.0375827)
(0.779797 0.688952 -0.0350257)
(0.779745 0.688861 -0.0324131)
(0.831952 0.720216 -0.0190026)
(0.835333 0.727441 -0.0193145)
(0.839918 0.733972 -0.0195662)
(0.835286 0.681704 -0.0169179)
(0.83192 0.68893 -0.0173632)
(0.829862 0.69663 -0.0178076)
(0.829175 0.704573 -0.0182375)
(0.829879 0.712515 -0.0186399)
(0.839857 0.675173 -0.0164852)
(0.845495 0.669536 -0.0160783)
(0.852029 0.664963 -0.0157094)
(0.85926 0.661594 -0.0153898)
(0.866967 0.65953 -0.0151293)
(0.874918 0.658835 -0.0149357)
(0.882871 0.65953 -0.0148149)
(0.890583 0.661594 -0.0147706)
(0.89782 0.664963 -0.0148041)
(0.904363 0.669536 -0.0149144)
(0.910013 0.675173 -0.0150982)
(0.914598 0.681704 -0.0153499)
(0.917979 0.68893 -0.0156618)
(0.920053 0.69663 -0.0160245)
(0.920757 0.704573 -0.0164269)
(0.920069 0.712515 -0.0168568)
(0.918011 0.720216 -0.0173011)
(0.914646 0.727441 -0.0177464)
(0.910074 0.733972 -0.0181791)
(0.904436 0.739609 -0.0185861)
(0.897902 0.744182 -0.018955)
(0.890672 0.747552 -0.0192745)
(0.882964 0.749615 -0.0195351)
(0.875013 0.75031 -0.0197287)
(0.867061 0.749615 -0.0198495)
(0.859349 0.747552 -0.0198938)
(0.852111 0.744182 -0.0198603)
(0.845568 0.739609 -0.01975)
(0.877057 0.722893 0.0218116)
(0.879834 0.72215 0.0219054)
(0.874193 0.723144 0.0217418)
(0.871328 0.722893 0.0216983)
(0.86855 0.72215 0.0216823)
(0.865942 0.720936 0.0216944)
(0.863585 0.719289 0.0217342)
(0.86155 0.717258 0.0218004)
(0.859898 0.714905 0.0218911)
(0.85868 0.712302 0.0220034)
(0.857933 0.709527 0.0221341)
(0.857679 0.706666 0.022279)
(0.857927 0.703805 0.0224339)
(0.858668 0.701031 0.022594)
(0.859881 0.698427 0.0227544)
(0.861528 0.696075 0.0229103)
(0.863559 0.694044 0.0230569)
(0.865913 0.692396 0.0231898)
(0.868518 0.691182 0.023305)
(0.871295 0.690439 0.0233988)
(0.874159 0.690189 0.0234686)
(0.877024 0.690439 0.0235121)
(0.879802 0.691182 0.0235281)
(0.88241 0.692396 0.023516)
(0.884767 0.694044 0.0234762)
(0.886802 0.696075 0.02341)
(0.888454 0.698427 0.0233193)
(0.889672 0.701031 0.023207)
(0.890419 0.703805 0.0230763)
(0.890673 0.706666 0.0229313)
(0.890425 0.709527 0.0227765)
(0.889684 0.712302 0.0226164)
(0.888471 0.714905 0.022456)
(0.886824 0.717258 0.0223001)
(0.884793 0.719289 0.0221535)
(0.882439 0.720936 0.0220206)
)


// edges:

616
(
(2 0)
(32 2)
(56 32)
(57 56)
(58 57)
(59 58)
(60 59)
(61 60)
(62 61)
(33 62)
(1 33)
(34 3)
(63 34)
(64 63)
(65 64)
(66 65)
(67 66)
(68 67)
(69 68)
(35 69)
(0 35)
(3 1)
(36 0)
(2 37)
(37 70)
(71 36)
(70 72)
(73 71)
(72 74)
(75 73)
(74 76)
(77 75)
(76 78)
(79 77)
(78 80)
(81 79)
(80 82)
(83 81)
(82 84)
(85 83)
(84 86)
(87 85)
(86 88)
(89 87)
(88 90)
(91 89)
(90 92)
(93 91)
(92 94)
(95 93)
(94 96)
(97 95)
(96 98)
(99 97)
(98 100)
(101 99)
(100 102)
(103 101)
(102 104)
(105 103)
(104 106)
(107 105)
(106 108)
(109 107)
(108 110)
(111 109)
(110 112)
(113 111)
(112 114)
(115 113)
(114 116)
(117 115)
(116 118)
(119 117)
(118 120)
(121 119)
(120 122)
(123 121)
(122 124)
(125 123)
(124 126)
(127 125)
(126 38)
(39 127)
(3 39)
(38 1)
(128 129)
(129 130)
(130 131)
(131 132)
(132 133)
(133 134)
(134 135)
(135 136)
(136 137)
(137 138)
(138 139)
(139 140)
(140 141)
(141 142)
(142 143)
(143 144)
(144 145)
(145 146)
(146 147)
(147 148)
(148 149)
(149 150)
(150 151)
(151 152)
(152 153)
(153 154)
(154 155)
(155 156)
(156 157)
(157 158)
(158 159)
(159 160)
(160 161)
(161 162)
(162 163)
(163 128)
(164 165)
(165 166)
(166 167)
(167 168)
(168 169)
(169 170)
(170 171)
(171 172)
(172 173)
(173 174)
(174 175)
(175 176)
(176 177)
(177 178)
(178 179)
(179 180)
(180 181)
(181 182)
(182 183)
(183 184)
(184 185)
(185 186)
(186 187)
(187 188)
(188 189)
(189 190)
(190 191)
(191 192)
(192 193)
(193 194)
(194 195)
(195 196)
(196 197)
(197 198)
(198 199)
(199 164)
(43 200)
(200 201)
(201 202)
(202 203)
(203 204)
(204 205)
(205 206)
(206 42)
(207 41)
(208 207)
(209 208)
(210 209)
(211 210)
(212 211)
(213 212)
(40 213)
(4 5)
(5 44)
(45 7)
(214 45)
(215 214)
(216 215)
(217 216)
(218 217)
(219 218)
(7 6)
(46 4)
(220 46)
(221 220)
(222 221)
(223 222)
(224 223)
(225 224)
(226 225)
(47 226)
(6 47)
(44 227)
(227 219)
(7 48)
(49 6)
(51 228)
(229 50)
(228 230)
(231 229)
(230 232)
(233 231)
(232 234)
(235 233)
(234 236)
(237 235)
(236 238)
(239 237)
(238 240)
(241 239)
(240 242)
(243 241)
(242 244)
(245 243)
(244 246)
(247 245)
(246 248)
(249 247)
(248 250)
(251 249)
(250 252)
(253 251)
(252 254)
(255 253)
(254 256)
(257 255)
(256 258)
(259 257)
(258 260)
(261 259)
(260 262)
(263 261)
(262 264)
(265 263)
(264 266)
(267 265)
(266 268)
(269 267)
(268 270)
(271 269)
(270 272)
(273 271)
(272 274)
(275 273)
(274 276)
(277 275)
(276 278)
(279 277)
(278 280)
(281 279)
(280 282)
(283 281)
(282 284)
(285 283)
(284 49)
(48 285)
(50 5)
(4 51)
(286 287)
(287 288)
(288 289)
(289 290)
(290 291)
(291 292)
(292 293)
(293 294)
(294 295)
(295 296)
(296 297)
(297 298)
(298 299)
(299 300)
(300 301)
(301 302)
(302 303)
(303 304)
(304 305)
(305 306)
(306 307)
(307 308)
(308 309)
(309 310)
(310 311)
(311 312)
(312 313)
(313 314)
(314 315)
(315 316)
(316 317)
(317 318)
(318 319)
(319 320)
(320 321)
(321 286)
(322 323)
(323 324)
(324 325)
(325 326)
(326 327)
(327 328)
(328 329)
(329 330)
(330 331)
(331 332)
(332 333)
(333 334)
(334 335)
(335 336)
(336 337)
(337 338)
(338 339)
(339 340)
(340 341)
(341 342)
(342 343)
(343 344)
(344 345)
(345 346)
(346 347)
(347 348)
(348 349)
(349 350)
(350 351)
(351 352)
(352 353)
(353 354)
(354 355)
(355 356)
(356 357)
(357 322)
(358 359)
(359 360)
(360 361)
(361 362)
(362 363)
(363 364)
(364 54)
(55 358)
(365 52)
(366 365)
(367 366)
(368 367)
(369 368)
(370 369)
(371 370)
(53 371)
(10 8)
(8 9)
(9 11)
(11 10)
(13 12)
(12 8)
(10 13)
(15 14)
(14 12)
(13 15)
(9 14)
(15 11)
(18 16)
(16 17)
(17 19)
(19 18)
(21 20)
(20 16)
(18 21)
(23 22)
(22 20)
(21 23)
(17 22)
(23 19)
(26 24)
(24 25)
(25 27)
(27 26)
(29 28)
(28 24)
(26 29)
(31 30)
(30 28)
(29 31)
(25 30)
(31 27)
(372 373)
(374 375)
(373 376)
(376 377)
(377 378)
(378 379)
(379 380)
(380 381)
(381 382)
(382 383)
(383 384)
(384 385)
(385 386)
(386 387)
(387 388)
(388 389)
(389 390)
(390 391)
(391 374)
(392 393)
(393 394)
(394 395)
(395 396)
(396 397)
(397 398)
(398 399)
(399 400)
(400 401)
(401 402)
(402 403)
(403 404)
(404 372)
(375 405)
(405 406)
(406 407)
(407 392)
(37 36)
(38 39)
(408 409)
(409 410)
(411 412)
(412 413)
(41 40)
(413 414)
(414 415)
(410 411)
(40 35)
(34 41)
(415 416)
(416 417)
(417 418)
(418 419)
(419 420)
(420 421)
(421 422)
(422 423)
(423 424)
(424 425)
(425 426)
(426 427)
(427 428)
(428 429)
(429 430)
(430 431)
(431 432)
(432 433)
(433 434)
(434 435)
(435 436)
(436 437)
(437 438)
(438 439)
(439 440)
(440 441)
(441 442)
(442 443)
(443 408)
(42 33)
(32 43)
(43 42)
(444 445)
(446 444)
(447 446)
(448 447)
(449 448)
(450 449)
(451 450)
(452 451)
(453 452)
(454 453)
(455 454)
(456 455)
(457 456)
(458 457)
(459 458)
(460 459)
(461 460)
(462 461)
(463 462)
(464 463)
(465 464)
(466 465)
(467 466)
(468 467)
(469 468)
(470 469)
(471 470)
(472 471)
(473 472)
(474 473)
(475 474)
(476 475)
(477 476)
(478 477)
(479 478)
(445 479)
(480 481)
(481 482)
(482 483)
(483 484)
(484 485)
(485 486)
(486 487)
(487 488)
(488 489)
(489 490)
(490 491)
(491 492)
(492 493)
(493 494)
(494 495)
(495 496)
(496 497)
(497 498)
(498 499)
(499 500)
(500 501)
(501 502)
(502 503)
(503 504)
(504 505)
(505 506)
(506 507)
(507 508)
(508 509)
(509 510)
(510 511)
(511 512)
(512 513)
(513 514)
(514 515)
(515 480)
(48 49)
(50 51)
(45 52)
(516 517)
(517 518)
(53 44)
(519 520)
(520 521)
(521 522)
(52 53)
(522 523)
(523 516)
(524 519)
(525 524)
(526 525)
(527 526)
(528 527)
(529 528)
(530 529)
(531 530)
(532 531)
(533 532)
(534 533)
(535 534)
(536 535)
(537 536)
(538 537)
(539 538)
(540 539)
(541 540)
(542 541)
(543 542)
(544 543)
(545 544)
(546 545)
(547 546)
(548 547)
(549 548)
(550 549)
(551 550)
(518 551)
(54 47)
(46 55)
(55 54)
(552 553)
(554 552)
(555 554)
(556 555)
(557 556)
(558 557)
(559 558)
(560 559)
(561 560)
(562 561)
(563 562)
(564 563)
(565 564)
(566 565)
(567 566)
(568 567)
(569 568)
(570 569)
(571 570)
(572 571)
(573 572)
(574 573)
(575 574)
(576 575)
(577 576)
(578 577)
(579 578)
(580 579)
(581 580)
(582 581)
(583 582)
(584 583)
(585 584)
(586 585)
(587 586)
(553 587)
)

// * * * * * * * * * * * * * * * * * * * * * * * * * * * * * * * * * * * * * //


// ************************************************************************* //
