/*--------------------------------*- C++ -*----------------------------------*\
| =========                 |                                                 |
| \\      /  F ield         | OpenFOAM: The Open Source CFD Toolbox           |
|  \\    /   O peration     | Version:  5.x                                   |
|   \\  /    A nd           | Web:      www.OpenFOAM.org                      |
|    \\/     M anipulation  |                                                 |
\*---------------------------------------------------------------------------*/
/*   Windows 32 and 64 bit porting by blueCAPE: http://www.bluecape.com.pt   *\
|  Based on Windows porting (2.0.x v4) by Symscape: http://www.symscape.com   |
\*---------------------------------------------------------------------------*/
FoamFile
{
    version     2.0;
    format      ascii;
    class       featureEdgeMesh;
    location    "constant/triSurface";
    object      NEMO4_RearQuadProp.eMesh;
}
// * * * * * * * * * * * * * * * * * * * * * * * * * * * * * * * * * * * * * //


// points:

258
(
(0.884708 0.694201 0.0264715)
(0.886743 0.696232 0.0264053)
(0.888395 0.698584 0.0263146)
(0.889613 0.701188 0.0262023)
(0.89036 0.703962 0.0260716)
(0.889416 0.701711 0.0361866)
(0.888197 0.699108 0.036299)
(0.890163 0.704485 0.036056)
(0.886546 0.696755 0.0363896)
(0.88451 0.694724 0.0364559)
(0.882153 0.693077 0.0364956)
(0.879546 0.691863 0.0365077)
(0.876767 0.691119 0.0364917)
(0.873902 0.690869 0.0364482)
(0.871038 0.691119 0.0363785)
(0.868261 0.691863 0.0362846)
(0.865656 0.693077 0.0361695)
(0.863303 0.694724 0.0360366)
(0.861271 0.696755 0.03589)
(0.859624 0.699108 0.0357341)
(0.858412 0.701711 0.0355737)
(0.85767 0.704485 0.0354136)
(0.857868 0.703962 0.0254292)
(0.858609 0.701188 0.0255893)
(0.859822 0.698584 0.0257497)
(0.861469 0.696232 0.0259056)
(0.8635 0.694201 0.0260522)
(0.865854 0.692553 0.0261851)
(0.868459 0.691339 0.0263002)
(0.871235 0.690596 0.0263941)
(0.8741 0.690346 0.0264639)
(0.876965 0.690596 0.0265074)
(0.879743 0.691339 0.0265233)
(0.882351 0.692553 0.0265113)
(0.889427 0.712982 0.035596)
(0.890169 0.710208 0.0357561)
(0.890366 0.709684 0.0257718)
(0.889625 0.712459 0.0256117)
(0.888412 0.715062 0.0254513)
(0.886765 0.717415 0.0252954)
(0.884734 0.719446 0.0251487)
(0.88238 0.721093 0.0250159)
(0.879775 0.722307 0.0249007)
(0.876998 0.72305 0.0248069)
(0.874134 0.723301 0.0247371)
(0.871269 0.72305 0.0246936)
(0.868491 0.722307 0.0246776)
(0.865883 0.721093 0.0246897)
(0.863526 0.719446 0.0247295)
(0.861491 0.717415 0.0247957)
(0.859839 0.715062 0.0248863)
(0.858621 0.712459 0.0249987)
(0.857874 0.709684 0.0251294)
(0.858423 0.712982 0.0349831)
(0.859641 0.715585 0.0348707)
(0.857676 0.710208 0.0351137)
(0.861293 0.717938 0.03478)
(0.863329 0.719969 0.0347138)
(0.865686 0.721616 0.0346741)
(0.868293 0.72283 0.034662)
(0.871072 0.723574 0.0346779)
(0.873936 0.723824 0.0347215)
(0.876801 0.723574 0.0347912)
(0.879578 0.72283 0.0348851)
(0.882183 0.721616 0.0350002)
(0.884537 0.719969 0.0351331)
(0.886568 0.717938 0.0352797)
(0.888215 0.715585 0.0354356)
(0.85762 0.706823 0.0252743)
(0.857423 0.707347 0.0352587)
(0.890614 0.706823 0.0259266)
(0.890416 0.707347 0.035911)
(0.8901 1.06163 0.0112664)
(0.890101 1.06163 0.0112614)
(0.858712 1.06163 0.0106408)
(0.858712 1.06163 0.0106458)
(0.888886 1.0606 0.0137977)
(0.888413 1.06015 0.0141383)
(0.887893 1.05965 0.0143948)
(0.889296 1.06097 0.0133834)
(0.889474 1.06114 0.0131525)
(0.889631 1.06128 0.012908)
(0.889768 1.06139 0.0126519)
(0.889882 1.06149 0.012386)
(0.889973 1.06156 0.0121124)
(0.89004 1.06161 0.0118332)
(0.890082 1.06163 0.0115505)
(0.858719 1.06163 0.0109304)
(0.858751 1.06161 0.0112146)
(0.858807 1.06156 0.0114962)
(0.858887 1.06149 0.0117732)
(0.859433 1.06097 0.012793)
(0.859264 1.06114 0.0125552)
(0.859116 1.06128 0.0123048)
(0.85899 1.06139 0.0120434)
(0.860285 1.06015 0.0135822)
(0.859826 1.0606 0.0132232)
(0.860794 1.05965 0.0138591)
(0.890068 1.06156 0.0107539)
(0.890096 1.0616 0.0110063)
(0.890062 1.06155 0.0106978)
(0.890019 1.06149 0.0104771)
(0.889957 1.06141 0.010262)
(0.889926 1.06137 0.0101545)
(0.889371 1.06075 0.00920068)
(0.889515 1.0609 0.00936847)
(0.889696 1.06111 0.00964815)
(0.889774 1.06119 0.00979525)
(0.88852 1.05985 0.0085034)
(0.888808 1.06015 0.00867186)
(0.888978 1.06033 0.00881365)
(0.88919 1.06055 0.00899091)
(0.888376 1.0597 0.0084192)
(0.888012 1.05932 0.00827913)
(0.887907 1.05921 0.00823913)
(0.859925 1.06033 0.00823137)
(0.860113 1.06014 0.00811465)
(0.860396 1.05985 0.00793951)
(0.860552 1.05969 0.00787873)
(0.860915 1.05932 0.00773686)
(0.85972 1.06054 0.00841749)
(0.859515 1.06076 0.0086036)
(0.859372 1.0609 0.00877252)
(0.859181 1.06111 0.00904486)
(0.859097 1.06119 0.00918874)
(0.858931 1.06137 0.00954175)
(0.858892 1.06141 0.0096465)
(0.858825 1.06149 0.00986037)
(0.858775 1.06155 0.0100797)
(0.858728 1.0616 0.0103862)
(0.858763 1.06156 0.0101345)
(0.886725 0.696271 0.0270981)
(0.886527 0.696031 0.0270894)
(0.888139 0.698277 0.0274613)
(0.887639 0.69747 0.0272329)
(0.887093 0.696718 0.0271142)
(0.889553 0.701323 0.0290202)
(0.889445 0.70101 0.028763)
(0.889322 0.700678 0.0285337)
(0.889005 0.699914 0.0281012)
(0.888592 0.699092 0.0277536)
(0.88837 0.69865 0.0275668)
(0.888494 0.699351 0.0327057)
(0.888922 0.700134 0.0322906)
(0.889258 0.700849 0.0317935)
(0.88939 0.701154 0.0315364)
(0.889508 0.701439 0.0312515)
(0.889513 0.701452 0.0312391)
(0.886966 0.697054 0.0335301)
(0.887518 0.697791 0.0333551)
(0.888029 0.698571 0.0330635)
(0.888264 0.698931 0.0329288)
(0.884565 0.694578 0.0336621)
(0.886398 0.696372 0.0336042)
(0.886597 0.696611 0.0335783)
(0.882208 0.69293 0.0337018)
(0.879601 0.691716 0.0337139)
(0.876822 0.690973 0.0336979)
(0.873958 0.690723 0.0336544)
(0.871093 0.690973 0.0335847)
(0.868316 0.691716 0.0334908)
(0.865712 0.69293 0.0333757)
(0.863358 0.694578 0.0332428)
(0.861529 0.696372 0.0331125)
(0.861331 0.696611 0.0330787)
(0.859921 0.698571 0.0325078)
(0.860419 0.697791 0.0328193)
(0.860964 0.697054 0.033016)
(0.858514 0.70144 0.0306389)
(0.858621 0.701155 0.0309275)
(0.858743 0.700849 0.0311903)
(0.859059 0.700134 0.0317002)
(0.85947 0.699351 0.0321319)
(0.859691 0.698931 0.0323639)
(0.859142 0.699914 0.0275108)
(0.858807 0.700678 0.0279304)
(0.858676 0.701009 0.0281542)
(0.858558 0.701322 0.0284077)
(0.858553 0.701336 0.0284187)
(0.861091 0.696718 0.0266001)
(0.86054 0.69747 0.0266971)
(0.860032 0.698277 0.0269056)
(0.859797 0.69865 0.0270019)
(0.859568 0.699092 0.0271798)
(0.863487 0.694236 0.026728)
(0.861658 0.696031 0.0265978)
(0.861459 0.696271 0.0265986)
(0.86584 0.692589 0.0268609)
(0.868445 0.691375 0.026976)
(0.871222 0.690632 0.0270699)
(0.874086 0.690381 0.0271396)
(0.876951 0.690632 0.0271831)
(0.87973 0.691375 0.0271991)
(0.882337 0.692589 0.027187)
(0.884694 0.694236 0.0271473)
(0.889019 0.713925 0.0273671)
(0.889335 0.71321 0.027877)
(0.889457 0.712904 0.0281392)
(0.889564 0.712619 0.0284285)
(0.889569 0.712607 0.0284411)
(0.887114 0.717004 0.0260512)
(0.887659 0.716268 0.0262479)
(0.888157 0.715488 0.0265595)
(0.888387 0.715128 0.0267034)
(0.888608 0.714707 0.0269354)
(0.884721 0.719481 0.0258245)
(0.886549 0.717686 0.0259547)
(0.886747 0.717448 0.0259885)
(0.882367 0.721128 0.0256916)
(0.879762 0.722342 0.0255765)
(0.876985 0.723086 0.0254826)
(0.874121 0.723336 0.0254129)
(0.871256 0.723086 0.0253693)
(0.868477 0.722342 0.0253534)
(0.86587 0.721128 0.0253655)
(0.863513 0.719481 0.0254052)
(0.86168 0.717686 0.025463)
(0.861481 0.717448 0.025489)
(0.86005 0.715488 0.0260038)
(0.86056 0.716268 0.0257121)
(0.861112 0.717004 0.0255372)
(0.858569 0.712618 0.0278156)
(0.858688 0.712904 0.0275314)
(0.85882 0.71321 0.0272737)
(0.859156 0.713925 0.0267767)
(0.859584 0.714707 0.0263616)
(0.859814 0.715128 0.0261385)
(0.859486 0.714967 0.0313137)
(0.859073 0.714145 0.0309661)
(0.858756 0.713381 0.0305336)
(0.858633 0.71305 0.0303048)
(0.858526 0.712736 0.0300468)
(0.860986 0.717341 0.0319531)
(0.860439 0.716589 0.0318343)
(0.859939 0.715782 0.031606)
(0.859708 0.715409 0.0315005)
(0.863384 0.719823 0.03192)
(0.861551 0.718028 0.0319778)
(0.861353 0.717787 0.0319691)
(0.865741 0.72147 0.0318802)
(0.868348 0.722684 0.0318682)
(0.871127 0.723427 0.0318841)
(0.873992 0.723678 0.0319276)
(0.876856 0.723427 0.0319974)
(0.879633 0.722684 0.0320913)
(0.882238 0.72147 0.0322064)
(0.884592 0.719823 0.0323393)
(0.886421 0.718028 0.0324695)
(0.886619 0.717787 0.0324687)
(0.888046 0.715782 0.0321617)
(0.887538 0.716589 0.0323701)
(0.886987 0.717341 0.0324671)
(0.889521 0.712735 0.0306599)
(0.889403 0.713049 0.0309126)
(0.889271 0.713381 0.0311369)
(0.888937 0.714145 0.0315565)
(0.88851 0.714967 0.0318875)
(0.888281 0.715409 0.0320654)
)


// edges:

252
(
(0 1)
(1 2)
(2 3)
(3 4)
(5 6)
(7 5)
(6 8)
(8 9)
(9 10)
(10 11)
(11 12)
(12 13)
(13 14)
(14 15)
(15 16)
(16 17)
(17 18)
(18 19)
(19 20)
(20 21)
(22 23)
(24 25)
(23 24)
(25 26)
(26 27)
(27 28)
(28 29)
(29 30)
(30 31)
(31 32)
(32 33)
(33 0)
(34 35)
(36 37)
(38 39)
(37 38)
(39 40)
(40 41)
(41 42)
(42 43)
(43 44)
(44 45)
(45 46)
(46 47)
(47 48)
(48 49)
(49 50)
(50 51)
(51 52)
(53 54)
(55 53)
(54 56)
(56 57)
(57 58)
(58 59)
(59 60)
(60 61)
(61 62)
(62 63)
(63 64)
(64 65)
(65 66)
(66 67)
(67 34)
(52 68)
(69 55)
(68 22)
(21 69)
(4 70)
(71 7)
(70 36)
(35 71)
(72 73)
(74 75)
(76 77)
(77 78)
(79 76)
(80 79)
(81 80)
(82 81)
(83 82)
(84 83)
(85 84)
(72 86)
(86 85)
(87 75)
(88 87)
(89 88)
(90 89)
(91 92)
(92 93)
(93 94)
(94 90)
(95 96)
(96 91)
(97 95)
(98 99)
(99 73)
(100 98)
(101 100)
(102 101)
(103 102)
(104 105)
(105 106)
(106 107)
(107 103)
(108 109)
(109 110)
(110 111)
(111 104)
(112 108)
(113 112)
(114 113)
(115 116)
(116 117)
(117 118)
(118 119)
(120 115)
(121 120)
(122 121)
(123 122)
(124 123)
(125 124)
(126 125)
(127 126)
(128 127)
(74 129)
(129 130)
(130 128)
(131 132)
(133 134)
(134 135)
(135 131)
(136 137)
(137 138)
(138 139)
(139 140)
(140 141)
(141 133)
(142 143)
(143 144)
(144 145)
(145 146)
(146 147)
(148 149)
(149 150)
(150 151)
(151 142)
(152 153)
(153 154)
(154 148)
(155 152)
(156 155)
(157 156)
(158 157)
(159 158)
(160 159)
(161 160)
(162 161)
(163 162)
(164 163)
(165 166)
(166 167)
(167 164)
(168 169)
(169 170)
(170 171)
(171 172)
(172 173)
(173 165)
(174 175)
(175 176)
(176 177)
(177 178)
(179 180)
(180 181)
(181 182)
(182 183)
(183 174)
(184 185)
(185 186)
(186 179)
(187 184)
(188 187)
(189 188)
(190 189)
(191 190)
(192 191)
(193 192)
(194 193)
(132 194)
(195 196)
(196 197)
(197 198)
(198 199)
(200 201)
(201 202)
(202 203)
(203 204)
(204 195)
(205 206)
(206 207)
(207 200)
(208 205)
(209 208)
(210 209)
(211 210)
(212 211)
(213 212)
(214 213)
(215 214)
(216 215)
(217 216)
(218 219)
(219 220)
(220 217)
(221 222)
(222 223)
(223 224)
(224 225)
(225 226)
(226 218)
(227 228)
(228 229)
(229 230)
(230 231)
(232 233)
(233 234)
(234 235)
(235 227)
(236 237)
(237 238)
(238 232)
(239 236)
(240 239)
(241 240)
(242 241)
(243 242)
(244 243)
(245 244)
(246 245)
(247 246)
(248 247)
(249 250)
(250 251)
(251 248)
(252 253)
(253 254)
(254 255)
(255 256)
(256 257)
(257 249)
)

// * * * * * * * * * * * * * * * * * * * * * * * * * * * * * * * * * * * * * //


// ************************************************************************* //
