/*--------------------------------*- C++ -*----------------------------------*\
| =========                 |                                                 |
| \\      /  F ield         | OpenFOAM: The Open Source CFD Toolbox           |
|  \\    /   O peration     | Version:  5.x                                   |
|   \\  /    A nd           | Web:      www.OpenFOAM.org                      |
|    \\/     M anipulation  |                                                 |
\*---------------------------------------------------------------------------*/
/*   Windows 32 and 64 bit porting by blueCAPE: http://www.bluecape.com.pt   *\
|  Based on Windows porting (2.0.x v4) by Symscape: http://www.symscape.com   |
\*---------------------------------------------------------------------------*/
FoamFile
{
    version     2.0;
    format      ascii;
    class       featureEdgeMesh;
    location    "constant/triSurface";
    object      NEMO4_RearLG.eMesh;
}
// * * * * * * * * * * * * * * * * * * * * * * * * * * * * * * * * * * * * * //


// points:

157
(
(0.662804 0.00187464 -0.209871)
(0.662804 0.00187464 -0.204871)
(0.662804 0.113245 -0.206705)
(0.712804 0.00187464 -0.204871)
(0.712804 0.00187464 -0.209871)
(0.712804 0.113245 -0.206705)
(0.672804 0.332649 -0.514871)
(0.672804 0.335649 -0.514871)
(0.702805 0.332649 -0.514871)
(0.702805 0.335649 -0.514871)
(0.662804 0.109375 -0.209871)
(0.712804 0.109375 -0.209871)
(0.672804 0.332649 -0.481238)
(0.702805 0.332649 -0.481238)
(0.662804 0.107875 -0.209871)
(0.662804 0.107875 -0.204871)
(0.662804 0.108625 -0.209871)
(0.662804 0.11056 -0.205788)
(0.662804 0.111902 -0.206247)
(0.712804 0.107875 -0.204871)
(0.712804 0.107875 -0.209871)
(0.712804 0.108625 -0.209871)
(0.712804 0.11056 -0.205788)
(0.712804 0.111902 -0.206247)
(0.69975 0.107878 -0.211095)
(0.700348 0.107944 -0.211042)
(0.700363 0.107945 -0.21104)
(0.675243 0.107932 -0.211051)
(0.675258 0.107932 -0.211051)
(0.676812 0.107869 -0.211103)
(0.678382 0.107805 -0.211155)
(0.675035 0.107941 -0.211044)
(0.681523 0.107678 -0.211259)
(0.687391 0.10744 -0.211453)
(0.687804 0.107455 -0.211442)
(0.694087 0.107677 -0.211259)
(0.697229 0.107789 -0.211168)
(0.698799 0.107844 -0.211123)
(0.706586 0.113974 -0.206109)
(0.664253 0.113464 -0.206526)
(0.669019 0.113989 -0.206097)
(0.675246 0.114674 -0.205536)
(0.675261 0.114676 -0.205535)
(0.675859 0.114741 -0.205481)
(0.687805 0.115165 -0.205135)
(0.700574 0.114679 -0.205532)
(0.700366 0.114687 -0.205525)
(0.700351 0.114688 -0.205525)
(0.688218 0.115179 -0.205123)
(0.679097 0.331651 -0.481871)
(0.682277 0.3314 -0.481871)
(0.684614 0.331216 -0.481871)
(0.690148 0.331185 -0.481871)
(0.693333 0.331394 -0.481871)
(0.69538 0.331529 -0.481871)
(0.696513 0.331651 -0.481871)
(0.682273 0.331351 -0.514871)
(0.682273 0.336946 -0.514871)
(0.693336 0.331351 -0.514871)
(0.693336 0.336946 -0.514871)
(0.672804 0.332649 -0.481871)
(0.672804 0.334971 -0.479338)
(0.672804 0.335649 -0.481871)
(0.702805 0.335649 -0.481871)
(0.678761 0.331697 -0.481871)
(0.678362 0.331752 -0.481871)
(0.677962 0.331807 -0.481871)
(0.677763 0.331834 -0.481871)
(0.677563 0.331861 -0.481871)
(0.677164 0.331916 -0.481871)
(0.676765 0.331971 -0.481871)
(0.676366 0.332026 -0.481871)
(0.702805 0.332649 -0.481871)
(0.699642 0.33208 -0.481871)
(0.699243 0.332026 -0.481871)
(0.698844 0.331971 -0.481871)
(0.698445 0.331916 -0.481871)
(0.698046 0.331861 -0.481871)
(0.697846 0.331834 -0.481871)
(0.697647 0.331807 -0.481871)
(0.697247 0.331752 -0.481871)
(0.696848 0.331697 -0.481871)
(0.702805 0.334971 -0.479338)
(0.707805 0.221012 -0.345555)
(0.667804 0.221012 -0.345555)
(0.707805 0.224108 -0.343022)
(0.667804 0.224108 -0.343022)
(0.666711 0.107875 -0.209871)
(0.667492 0.107875 -0.209871)
(0.668273 0.107875 -0.209871)
(0.669055 0.107875 -0.209871)
(0.669836 0.107875 -0.209871)
(0.670617 0.107875 -0.209871)
(0.671398 0.107875 -0.209871)
(0.67218 0.107875 -0.209871)
(0.673742 0.107875 -0.209871)
(0.675304 0.107875 -0.209871)
(0.676867 0.107875 -0.209871)
(0.678429 0.107875 -0.209871)
(0.681554 0.107875 -0.209871)
(0.687805 0.107875 -0.209871)
(0.694054 0.107875 -0.209871)
(0.697179 0.107875 -0.209871)
(0.698742 0.107875 -0.209871)
(0.700305 0.107875 -0.209871)
(0.701867 0.107875 -0.209871)
(0.70343 0.107875 -0.209871)
(0.704211 0.107875 -0.209871)
(0.704992 0.107875 -0.209871)
(0.705773 0.107875 -0.209871)
(0.706554 0.107875 -0.209871)
(0.707336 0.107875 -0.209871)
(0.708117 0.107875 -0.209871)
(0.664358 0.109192 -0.21002)
(0.711356 0.109155 -0.210051)
(0.71126 0.109144 -0.210059)
(0.710482 0.109059 -0.210129)
(0.709704 0.108973 -0.2102)
(0.708926 0.108888 -0.210269)
(0.665135 0.109101 -0.210095)
(0.665913 0.10901 -0.210169)
(0.66669 0.108919 -0.210244)
(0.667468 0.108828 -0.210318)
(0.668245 0.108737 -0.210393)
(0.680278 0.331747 -0.481871)
(0.679123 0.331874 -0.481871)
(0.683711 0.33137 -0.481871)
(0.687707 0.331227 -0.481871)
(0.69232 0.331401 -0.481871)
(0.695332 0.331743 -0.481871)
(0.696486 0.331874 -0.481871)
(0.676366 0.332166 -0.481632)
(0.675967 0.332209 -0.481598)
(0.676765 0.332124 -0.481667)
(0.677563 0.33204 -0.481736)
(0.677164 0.332082 -0.481702)
(0.677763 0.332018 -0.481753)
(0.677962 0.331997 -0.481771)
(0.678362 0.331955 -0.481806)
(0.678761 0.331912 -0.48184)
(0.674384 0.332428 -0.481418)
(0.675175 0.332318 -0.481508)
(0.675571 0.332263 -0.481553)
(0.675948 0.332211 -0.481596)
(0.696847 0.331912 -0.48184)
(0.697647 0.331997 -0.481771)
(0.697247 0.331955 -0.481805)
(0.697846 0.332018 -0.481753)
(0.698046 0.33204 -0.481736)
(0.698445 0.332082 -0.481702)
(0.698844 0.332124 -0.481667)
(0.699243 0.332166 -0.481632)
(0.701225 0.332428 -0.481418)
(0.700434 0.332318 -0.481508)
(0.700038 0.332263 -0.481553)
(0.699661 0.332211 -0.481596)
(0.699642 0.332209 -0.481598)
)


// edges:

160
(
(14 0)
(0 1)
(1 15)
(16 14)
(15 17)
(10 16)
(17 18)
(18 2)
(3 19)
(1 3)
(3 4)
(4 20)
(20 21)
(22 19)
(21 11)
(23 22)
(5 23)
(4 0)
(24 25)
(25 26)
(27 28)
(28 29)
(29 30)
(31 27)
(30 32)
(32 33)
(33 34)
(34 35)
(35 36)
(36 37)
(37 24)
(5 38)
(39 2)
(40 39)
(41 40)
(42 41)
(43 42)
(44 43)
(38 45)
(45 46)
(46 47)
(47 48)
(48 44)
(49 50)
(50 51)
(51 52)
(52 53)
(53 54)
(54 55)
(6 7)
(56 6)
(7 57)
(58 56)
(57 59)
(8 58)
(59 9)
(9 8)
(60 12)
(61 62)
(6 60)
(62 7)
(63 9)
(49 64)
(64 65)
(65 66)
(66 67)
(67 68)
(68 69)
(69 70)
(70 71)
(8 72)
(73 74)
(74 75)
(75 76)
(76 77)
(77 78)
(78 79)
(79 80)
(80 81)
(81 55)
(13 72)
(63 82)
(13 83)
(84 12)
(10 84)
(83 11)
(85 5)
(82 85)
(2 86)
(86 61)
(87 88)
(88 89)
(89 90)
(90 91)
(91 92)
(92 93)
(93 94)
(94 95)
(95 96)
(96 97)
(97 98)
(98 99)
(99 100)
(100 101)
(101 102)
(102 103)
(103 104)
(104 105)
(105 106)
(106 107)
(107 108)
(108 109)
(109 110)
(110 111)
(111 112)
(10 113)
(114 11)
(115 114)
(116 115)
(117 116)
(118 117)
(113 119)
(119 120)
(120 121)
(121 122)
(122 123)
(124 125)
(126 124)
(127 126)
(128 127)
(129 128)
(130 129)
(131 132)
(133 131)
(134 135)
(136 134)
(137 136)
(138 137)
(139 138)
(125 139)
(135 133)
(140 12)
(141 140)
(142 141)
(143 142)
(132 143)
(144 130)
(145 146)
(147 145)
(148 147)
(149 148)
(150 149)
(146 144)
(151 150)
(13 152)
(152 153)
(153 154)
(154 155)
(155 156)
(156 151)
)

// * * * * * * * * * * * * * * * * * * * * * * * * * * * * * * * * * * * * * //


// ************************************************************************* //
