/*--------------------------------*- C++ -*----------------------------------*\
| =========                 |                                                 |
| \\      /  F ield         | OpenFOAM: The Open Source CFD Toolbox           |
|  \\    /   O peration     | Version:  5.x                                   |
|   \\  /    A nd           | Web:      www.OpenFOAM.org                      |
|    \\/     M anipulation  |                                                 |
\*---------------------------------------------------------------------------*/
/*   Windows 32 and 64 bit porting by blueCAPE: http://www.bluecape.com.pt   *\
|  Based on Windows porting (2.0.x v4) by Symscape: http://www.symscape.com   |
\*---------------------------------------------------------------------------*/
FoamFile
{
    version     2.0;
    format      ascii;
    class       featureEdgeMesh;
    location    "constant/triSurface";
    object      NEMO4_FrontLG.eMesh;
}
// * * * * * * * * * * * * * * * * * * * * * * * * * * * * * * * * * * * * * //


// points:

157
(
(-0.00869159 0.00424989 -0.227438)
(-0.00869159 0.00424989 -0.222438)
(-0.00869159 0.11562 -0.224273)
(0.0413084 0.00424989 -0.222438)
(0.0413084 0.00424989 -0.227438)
(0.0413084 0.11562 -0.224273)
(0.00130841 0.335024 -0.532439)
(0.00130841 0.338024 -0.532439)
(0.0313084 0.335024 -0.532439)
(0.0313084 0.338024 -0.532439)
(-0.00869159 0.11175 -0.227438)
(0.0413084 0.11175 -0.227438)
(0.00130841 0.335024 -0.498805)
(0.0313084 0.335024 -0.498805)
(-0.00869159 0.11025 -0.227438)
(-0.00869159 0.11025 -0.222438)
(-0.00869159 0.111 -0.227438)
(-0.00869159 0.112935 -0.223356)
(-0.00869159 0.114277 -0.223814)
(0.0413084 0.11025 -0.222438)
(0.0413084 0.11025 -0.227438)
(0.0413084 0.111 -0.227438)
(0.0413084 0.112935 -0.223356)
(0.0413084 0.114277 -0.223814)
(0.0282544 0.110253 -0.228663)
(0.0288516 0.110319 -0.228609)
(0.0288669 0.110321 -0.228608)
(0.00374659 0.110307 -0.228618)
(0.00376205 0.110307 -0.228619)
(0.00531599 0.110244 -0.22867)
(0.00688608 0.11018 -0.228722)
(0.00353939 0.110316 -0.228611)
(0.0100273 0.110053 -0.228826)
(0.0158951 0.109815 -0.229021)
(0.0163075 0.10983 -0.229009)
(0.0225905 0.110053 -0.228827)
(0.0257325 0.110164 -0.228736)
(0.0273028 0.11022 -0.22869)
(0.0350902 0.116349 -0.223676)
(-0.00724256 0.11584 -0.224093)
(-0.00247756 0.116364 -0.223664)
(0.0037499 0.117049 -0.223104)
(0.00376523 0.117051 -0.223102)
(0.00436245 0.117117 -0.223048)
(0.0163093 0.11754 -0.222702)
(0.0290774 0.117054 -0.2231)
(0.0288702 0.117062 -0.223093)
(0.0288548 0.117063 -0.223092)
(0.0167217 0.117555 -0.22269)
(0.0076012 0.334026 -0.499438)
(0.0107806 0.333775 -0.499438)
(0.0131177 0.333591 -0.499438)
(0.0186518 0.33356 -0.499438)
(0.0218372 0.333769 -0.499438)
(0.0238844 0.333904 -0.499438)
(0.0250167 0.334026 -0.499438)
(0.0107767 0.333726 -0.532439)
(0.0107767 0.339322 -0.532439)
(0.0218401 0.333726 -0.532439)
(0.0218401 0.339322 -0.532439)
(0.00130841 0.335024 -0.499438)
(0.00130841 0.337346 -0.496906)
(0.00130841 0.338024 -0.499438)
(0.0313084 0.338024 -0.499438)
(0.00726535 0.334072 -0.499438)
(0.00686574 0.334127 -0.499438)
(0.00646624 0.334182 -0.499438)
(0.00626654 0.334209 -0.499438)
(0.00606687 0.334237 -0.499438)
(0.00566764 0.334291 -0.499438)
(0.00526857 0.334346 -0.499438)
(0.00486967 0.334401 -0.499438)
(0.0313084 0.335024 -0.499438)
(0.0281458 0.334456 -0.499438)
(0.0277472 0.334401 -0.499438)
(0.0273483 0.334346 -0.499438)
(0.0269492 0.334291 -0.499438)
(0.02655 0.334237 -0.499438)
(0.0263503 0.334209 -0.499438)
(0.0261506 0.334182 -0.499438)
(0.0257511 0.334127 -0.499438)
(0.0253515 0.334072 -0.499438)
(0.0313084 0.337346 -0.496906)
(0.0363084 0.223387 -0.363122)
(-0.00369159 0.223387 -0.363122)
(0.0363084 0.226483 -0.360589)
(-0.00369159 0.226483 -0.360589)
(-0.00478534 0.11025 -0.227438)
(-0.00400409 0.11025 -0.227438)
(-0.00322284 0.11025 -0.227438)
(-0.00244159 0.11025 -0.227438)
(-0.00166034 0.11025 -0.227438)
(-0.000879087 0.11025 -0.227438)
(-9.78367e-005 0.11025 -0.227438)
(0.000683414 0.11025 -0.227438)
(0.00224591 0.11025 -0.227438)
(0.00380841 0.11025 -0.227438)
(0.00537091 0.11025 -0.227438)
(0.00693341 0.11025 -0.227438)
(0.0100584 0.11025 -0.227438)
(0.0163084 0.11025 -0.227438)
(0.0225584 0.11025 -0.227438)
(0.0256834 0.11025 -0.227438)
(0.0272459 0.11025 -0.227438)
(0.0288084 0.11025 -0.227438)
(0.0303709 0.11025 -0.227438)
(0.0319334 0.11025 -0.227438)
(0.0327147 0.11025 -0.227438)
(0.0334959 0.11025 -0.227438)
(0.0342772 0.11025 -0.227438)
(0.0350584 0.11025 -0.227438)
(0.0358397 0.11025 -0.227438)
(0.0366209 0.11025 -0.227438)
(-0.00713786 0.111568 -0.227588)
(0.0398594 0.11153 -0.227618)
(0.0397641 0.11152 -0.227627)
(0.0389862 0.111434 -0.227697)
(0.0382081 0.111349 -0.227767)
(0.0374299 0.111263 -0.227837)
(-0.00636072 0.111477 -0.227662)
(-0.00558343 0.111386 -0.227737)
(-0.00480602 0.111294 -0.227811)
(-0.00402853 0.111203 -0.227886)
(-0.00325098 0.111112 -0.22796)
(0.00878137 0.334123 -0.499439)
(0.00762697 0.334249 -0.499439)
(0.0122147 0.333746 -0.499438)
(0.0162115 0.333602 -0.499438)
(0.0208236 0.333777 -0.499438)
(0.0238357 0.334118 -0.499439)
(0.0249898 0.334249 -0.499439)
(0.00486966 0.334542 -0.4992)
(0.00447093 0.334584 -0.499165)
(0.00526858 0.334499 -0.499234)
(0.00606692 0.334415 -0.499304)
(0.00566767 0.334457 -0.499269)
(0.0062666 0.334394 -0.499321)
(0.00646632 0.334372 -0.499338)
(0.00686583 0.33433 -0.499373)
(0.00726546 0.334288 -0.499408)
(0.00288811 0.334804 -0.498985)
(0.00367915 0.334694 -0.499076)
(0.00407491 0.334638 -0.499121)
(0.00445191 0.334586 -0.499164)
(0.0253514 0.334288 -0.499408)
(0.0261505 0.334372 -0.499338)
(0.025751 0.33433 -0.499373)
(0.0263502 0.334394 -0.499321)
(0.0265499 0.334415 -0.499304)
(0.0269492 0.334457 -0.499269)
(0.0273483 0.334499 -0.499234)
(0.0277472 0.334542 -0.4992)
(0.0297287 0.334804 -0.498985)
(0.0289377 0.334694 -0.499076)
(0.0285419 0.334638 -0.499121)
(0.0281649 0.334586 -0.499164)
(0.0281459 0.334584 -0.499165)
)


// edges:

160
(
(14 0)
(0 1)
(1 15)
(16 14)
(15 17)
(10 16)
(17 18)
(18 2)
(3 19)
(1 3)
(3 4)
(4 20)
(20 21)
(22 19)
(21 11)
(23 22)
(5 23)
(4 0)
(24 25)
(25 26)
(27 28)
(28 29)
(29 30)
(31 27)
(30 32)
(32 33)
(33 34)
(34 35)
(35 36)
(36 37)
(37 24)
(5 38)
(39 2)
(40 39)
(41 40)
(42 41)
(43 42)
(44 43)
(38 45)
(45 46)
(46 47)
(47 48)
(48 44)
(49 50)
(50 51)
(51 52)
(52 53)
(53 54)
(54 55)
(6 7)
(56 6)
(7 57)
(58 56)
(57 59)
(8 58)
(59 9)
(9 8)
(60 12)
(61 62)
(6 60)
(62 7)
(63 9)
(49 64)
(64 65)
(65 66)
(66 67)
(67 68)
(68 69)
(69 70)
(70 71)
(8 72)
(73 74)
(74 75)
(75 76)
(76 77)
(77 78)
(78 79)
(79 80)
(80 81)
(81 55)
(13 72)
(63 82)
(13 83)
(84 12)
(10 84)
(83 11)
(85 5)
(82 85)
(2 86)
(86 61)
(87 88)
(88 89)
(89 90)
(90 91)
(91 92)
(92 93)
(93 94)
(94 95)
(95 96)
(96 97)
(97 98)
(98 99)
(99 100)
(100 101)
(101 102)
(102 103)
(103 104)
(104 105)
(105 106)
(106 107)
(107 108)
(108 109)
(109 110)
(110 111)
(111 112)
(10 113)
(114 11)
(115 114)
(116 115)
(117 116)
(118 117)
(113 119)
(119 120)
(120 121)
(121 122)
(122 123)
(124 125)
(126 124)
(127 126)
(128 127)
(129 128)
(130 129)
(131 132)
(133 131)
(134 135)
(136 134)
(137 136)
(138 137)
(139 138)
(125 139)
(135 133)
(140 12)
(141 140)
(142 141)
(143 142)
(132 143)
(144 130)
(145 146)
(147 145)
(148 147)
(149 148)
(150 149)
(146 144)
(151 150)
(13 152)
(152 153)
(153 154)
(154 155)
(155 156)
(156 151)
)

// * * * * * * * * * * * * * * * * * * * * * * * * * * * * * * * * * * * * * //


// ************************************************************************* //
