/*--------------------------------*- C++ -*----------------------------------*\
| =========                 |                                                 |
| \\      /  F ield         | OpenFOAM: The Open Source CFD Toolbox           |
|  \\    /   O peration     | Version:  5                                     |
|   \\  /    A nd           | Web:      www.OpenFOAM.org                      |
|    \\/     M anipulation  |                                                 |
\*---------------------------------------------------------------------------*/
FoamFile
{
    version     2.0;
    format      ascii;
    class       dictionary;
    object      topoSetDict;
}

// * * * * * * * * * * * * * * * * * * * * * * * * * * * * * * * * * * * * * //

actions
(
    

    {
        name    PropDiskFaces;
        type    faceSet;
        action  new;
        source  patchToFace;
        sourceInfo
        {
            name NEMO4_PropDisk;
        }
    }
    {
        name    PropDisk;
        type    cellSet;
        action  new;
        source  faceToCell;
        sourceInfo
        {
            set PropDiskFaces;
            option owner;
        }
    }
    
    

);

// ************************************************************************* //

