/*--------------------------------*- C++ -*----------------------------------*\
| =========                 |                                                 |
| \\      /  F ield         | OpenFOAM: The Open Source CFD Toolbox           |
|  \\    /   O peration     | Version:  5                                     |
|   \\  /    A nd           | Web:      www.OpenFOAM.org                      |
|    \\/     M anipulation  |                                                 |
\*---------------------------------------------------------------------------*/
FoamFile
{
    version     2.0;
    format      ascii;
    class       dictionary;
    location    "constant";
    object      fvOptions;
}
// * * * * * * * * * * * * * * * * * * * * * * * * * * * * * * * * * * * * * //

NEMO4_PropDisk1
{
    type            actuationDiskSource;

    fields      (U);

    selectionMode   all;
    cellSet         propDisk;
    diskDir         (1 0 0);    // Orientation of the disk
    Cp              0.036252;
    Ct              0.04;
    diskArea        0.24524642;
    upstreamPoint   (-2.5 0 0);

}


// ************************************************************************* //
